REMARK  Name = 11887564
REMARK  10 active torsions:
REMARK  status: ('A' for Active; 'I' for Inactive)
REMARK    1  A    between atoms: O_3  and  C_19
REMARK    2  A    between atoms: O_3  and  C_25
REMARK    3  A    between atoms: O_5  and  C_24
REMARK    4  A    between atoms: O_5  and  C_26
REMARK    5  A    between atoms: N_8  and  C_14
REMARK    6  A    between atoms: C_9  and  C_13
REMARK    7  A    between atoms: C_14  and  C_16
REMARK    8  A    between atoms: C_14  and  C_19
REMARK    9  A    between atoms: C_15  and  C_17
REMARK   10  A    between atoms: C_16  and  C_18
REMARK                            x       y       z     vdW  Elec       q    Type
REMARK                         _______ _______ _______ _____ _____    ______ ____
ROOT
ATOM      1  O   UNL     1       2.353  -0.971   1.342  0.00  0.00    -0.274 OA
ATOM      8  N   UNL     1       0.538  -0.987  -0.116  0.00  0.00    -0.301 N 
ATOM     13  C   UNL     1       1.824  -0.658   0.278  0.00  0.00    +0.235 C 
ATOM     28  H   UNL     1       0.202  -0.674  -1.022  0.00  0.00    +0.150 HD
ENDROOT
BRANCH  13   9
ATOM      2  O   UNL     1       1.942   2.796  -0.084  0.00  0.00    -0.276 OA
ATOM      6  N   UNL     1       3.463   1.035  -0.055  0.00  0.00    -0.288 N 
ATOM      7  N   UNL     1       4.470  -1.406  -1.197  0.00  0.00    -0.312 NA
ATOM      9  C   UNL     1       2.556   0.130  -0.769  0.00  0.00    +0.175 C 
ATOM     10  C   UNL     1       3.278  -0.776  -1.768  0.00  0.00    +0.113 C 
ATOM     11  C   UNL     1       4.736   0.454   0.394  0.00  0.00    +0.123 C 
ATOM     12  C   UNL     1       5.392  -0.391  -0.693  0.00  0.00    +0.100 C 
ATOM     15  C   UNL     1       3.012   2.312   0.295  0.00  0.00    +0.213 C 
ATOM     17  C   UNL     1       3.913   3.125   1.191  0.00  0.00    +0.109 C 
ATOM     27  H   UNL     1       4.936  -1.958  -1.917  0.00  0.00    +0.122 HD
ENDBRANCH  13   9
BRANCH   8  14
ATOM     14  C   UNL     1      -0.366  -1.762   0.702  0.00  0.00    +0.186 C 
BRANCH  14  19
ATOM      4  O   UNL     1      -1.270  -2.654  -1.354  0.00  0.00    -0.249 OA
ATOM     19  C   UNL     1      -1.263  -2.671  -0.127  0.00  0.00    +0.328 C 
BRANCH  19   3
ATOM      3  O   UNL     1      -2.046  -3.470   0.651  0.00  0.00    -0.467 OA
ATOM     25  C   UNL     1      -2.935  -4.344  -0.052  0.00  0.00    +0.280 C 
ENDBRANCH  19   3
ENDBRANCH  14  19
BRANCH  14  16
ATOM     16  C   UNL     1      -1.175  -0.862   1.647  0.00  0.00    +0.069 C 
BRANCH  16  18
ATOM     18  C   UNL     1      -2.105   0.108   0.954  0.00  0.00    -0.045 A 
ATOM     20  C   UNL     1      -1.652   1.380   0.603  0.00  0.00    +0.007 A 
ATOM     21  C   UNL     1      -3.416  -0.270   0.664  0.00  0.00    +0.007 A 
ATOM     22  C   UNL     1      -2.510   2.274  -0.037  0.00  0.00    +0.046 A 
ATOM     23  C   UNL     1      -4.274   0.624   0.024  0.00  0.00    +0.046 A 
ATOM     24  C   UNL     1      -3.821   1.896  -0.326  0.00  0.00    +0.120 A 
BRANCH  24   5
ATOM      5  O   UNL     1      -4.659   2.769  -0.951  0.00  0.00    -0.495 OA
ATOM     26  C   UNL     1      -5.986   2.317  -1.217  0.00  0.00    +0.277 C 
ENDBRANCH  24   5
ENDBRANCH  16  18
ENDBRANCH  14  16
ENDBRANCH   8  14
TORSDOF 7
