REMARK  Name = 11885335
REMARK  4 active torsions:
REMARK  status: ('A' for Active; 'I' for Inactive)
REMARK    1  A    between atoms: S_1  and  C_27
REMARK    2  A    between atoms: S_1  and  C_28
REMARK    3  A    between atoms: N_4  and  C_12
REMARK    4  A    between atoms: C_20  and  C_22
REMARK                            x       y       z     vdW  Elec       q    Type
REMARK                         _______ _______ _______ _____ _____    ______ ____
ROOT
ATOM      3  O   UNL     1      -1.418   0.778  -1.832  0.00  0.00    -0.267 OA
ATOM      4  N   UNL     1       3.251   0.217  -0.090  0.00  0.00    -0.298 NA
ATOM      5  N   UNL     1       0.352   1.488  -0.491  0.00  0.00    -0.311 N 
ATOM      6  C   UNL     1       2.611   2.221  -1.454  0.00  0.00    +0.024 C 
ATOM      7  C   UNL     1       2.257   2.250   0.968  0.00  0.00    +0.050 C 
ATOM      8  C   UNL     1       2.683   3.109  -0.219  0.00  0.00    +0.017 C 
ATOM      9  C   UNL     1       3.552   1.009  -1.289  0.00  0.00    +0.090 C 
ATOM     10  C   UNL     1       3.228   1.057   1.117  0.00  0.00    +0.094 C 
ATOM     11  C   UNL     1       1.151   1.808  -1.683  0.00  0.00    +0.130 C 
ATOM     13  C   UNL     1       0.833   1.757   0.793  0.00  0.00    +0.026 A 
ATOM     16  C   UNL     1       0.044   1.562   1.862  0.00  0.00    +0.022 A 
ATOM     17  C   UNL     1      -0.949   0.996  -0.714  0.00  0.00    +0.259 A 
ATOM     20  C   UNL     1      -1.797   0.755   0.506  0.00  0.00    +0.047 A 
ATOM     21  C   UNL     1      -1.288   1.047   1.712  0.00  0.00    +0.015 A 
ENDROOT
BRANCH   4  12
ATOM      2  O   UNL     1       4.681  -3.725   0.107  0.00  0.00    -0.380 OA
ATOM     12  C   UNL     1       4.194  -0.888   0.059  0.00  0.00    +0.061 C 
ATOM     14  C   UNL     1       3.800  -1.768   1.248  0.00  0.00    +0.047 C 
ATOM     15  C   UNL     1       4.262  -1.732  -1.218  0.00  0.00    +0.047 C 
ATOM     18  C   UNL     1       4.711  -2.989   1.330  0.00  0.00    +0.161 C 
ATOM     19  C   UNL     1       5.147  -2.954  -1.000  0.00  0.00    +0.161 C 
ENDBRANCH   4  12
BRANCH  20  22
ATOM     22  C   UNL     1      -3.158   0.200   0.392  0.00  0.00    -0.013 A 
ATOM     23  C   UNL     1      -4.251   1.056   0.256  0.00  0.00    +0.010 A 
ATOM     24  C   UNL     1      -3.354  -1.181   0.420  0.00  0.00    +0.010 A 
ATOM     25  C   UNL     1      -5.540   0.532   0.148  0.00  0.00    +0.015 A 
ATOM     26  C   UNL     1      -4.642  -1.705   0.312  0.00  0.00    +0.015 A 
ATOM     27  C   UNL     1      -5.735  -0.849   0.177  0.00  0.00    +0.008 A 
BRANCH  27   1
ATOM      1  S   UNL     1      -7.380  -1.519   0.041  0.00  0.00    -0.129 S 
ATOM     28  C   UNL     1      -7.244  -2.533  -1.458  0.00  0.00    +0.090 C 
ENDBRANCH  27   1
ENDBRANCH  20  22
TORSDOF 3
