REMARK  Name = 28960039
REMARK  7 active torsions:
REMARK  status: ('A' for Active; 'I' for Inactive)
REMARK    1  A    between atoms: O_2  and  C_25
REMARK    2  A    between atoms: N_5  and  C_16
REMARK    3  A    between atoms: C_8  and  C_12
REMARK    4  A    between atoms: C_9  and  C_15
REMARK    5  A    between atoms: C_12  and  C_16
REMARK    6  A    between atoms: C_14  and  C_17
REMARK    7  A    between atoms: C_15  and  C_25
REMARK                            x       y       z     vdW  Elec       q    Type
REMARK                         _______ _______ _______ _____ _____    ______ ____
ROOT
ATOM      1  O   UNL     1       2.718  -2.903  -1.942  0.00  0.00    -0.275 OA
ATOM      4  N   UNL     1       3.238  -1.377  -0.270  0.00  0.00    -0.301 N 
ATOM      8  C   UNL     1       2.837   0.754   0.944  0.00  0.00    +0.011 C 
ATOM      9  C   UNL     1       4.056   1.361   0.204  0.00  0.00    +0.006 C 
ATOM     10  C   UNL     1       2.997  -0.774   1.047  0.00  0.00    +0.111 C 
ATOM     11  C   UNL     1       4.303   0.667  -1.145  0.00  0.00    +0.023 C 
ATOM     13  C   UNL     1       4.402  -0.847  -0.980  0.00  0.00    +0.108 C 
ATOM     17  C   UNL     1       2.478  -2.395  -0.844  0.00  0.00    +0.219 C 
ENDROOT
BRANCH  17  14
ATOM     14  C   UNL     1       1.301  -2.881  -0.054  0.00  0.00    +0.075 C 
ATOM     18  C   UNL     1       0.196  -3.349  -1.002  0.00  0.00    +0.013 C 
ATOM     19  C   UNL     1       1.750  -4.004   0.882  0.00  0.00    +0.013 C 
ATOM     20  C   UNL     1      -0.981  -3.949  -0.237  0.00  0.00    +0.001 C 
ATOM     21  C   UNL     1       0.572  -4.605   1.643  0.00  0.00    +0.001 C 
ATOM     22  C   UNL     1      -0.532  -5.069   0.697  0.00  0.00    +0.000 C 
ENDBRANCH  17  14
BRANCH   8  12
ATOM     12  C   UNL     1       1.485   1.107   0.311  0.00  0.00    +0.020 C 
BRANCH  12  16
ATOM     16  C   UNL     1       0.371   1.055   1.347  0.00  0.00    +0.085 C 
BRANCH  16   5
ATOM      5  N   UNL     1      -0.908   1.378   0.716  0.00  0.00    -0.299 NA
ATOM      6  N   UNL     1      -3.701   1.093   0.191  0.00  0.00    -0.313 N 
ATOM      7  N   UNL     1      -5.389   1.121  -1.469  0.00  0.00    -0.240 NA
ATOM     23  C   UNL     1      -1.898   1.765   1.729  0.00  0.00    +0.103 C 
ATOM     24  C   UNL     1      -1.405   0.232  -0.056  0.00  0.00    +0.103 C 
ATOM     26  C   UNL     1      -3.226   2.159   1.077  0.00  0.00    +0.122 C 
ATOM     27  C   UNL     1      -2.716   0.576  -0.767  0.00  0.00    +0.122 C 
ATOM     28  C   UNL     1      -5.054   1.035  -0.162  0.00  0.00    +0.121 A 
ATOM     29  C   UNL     1      -5.972   0.893   0.866  0.00  0.00    +0.043 A 
ATOM     30  C   UNL     1      -7.321   0.835   0.531  0.00  0.00    +0.005 A 
ATOM     31  C   UNL     1      -6.708   1.060  -1.757  0.00  0.00    +0.113 A 
ATOM     32  C   UNL     1      -7.704   0.919  -0.803  0.00  0.00    +0.020 A 
ENDBRANCH  16   5
ENDBRANCH  12  16
ENDBRANCH   8  12
BRANCH   9  15
ATOM     15  C   UNL     1       3.954   2.876   0.021  0.00  0.00    +0.124 C 
BRANCH  15  25
ATOM      3  O   UNL     1       6.381   2.922  -0.206  0.00  0.00    -0.251 OA
ATOM     25  C   UNL     1       5.306   3.503  -0.179  0.00  0.00    +0.305 C 
BRANCH  25   2
ATOM      2  O   UNL     1       5.170   4.845  -0.333  0.00  0.00    -0.481 OA
ATOM     33  H   UNL     1       6.035   5.287  -0.466  0.00  0.00    +0.295 HD
ENDBRANCH  25   2
ENDBRANCH  15  25
ENDBRANCH   9  15
TORSDOF 7
