REMARK  Name = 28960603
REMARK  12 active torsions:
REMARK  status: ('A' for Active; 'I' for Inactive)
REMARK    1  A    between atoms: O_3  and  C_12
REMARK    2  A    between atoms: O_5  and  C_25
REMARK    3  A    between atoms: O_5  and  C_28
REMARK    4  A    between atoms: N_6  and  C_10
REMARK    5  A    between atoms: N_6  and  C_16
REMARK    6  A    between atoms: N_6  and  C_17
REMARK    7  A    between atoms: N_7  and  C_11
REMARK    8  A    between atoms: N_8  and  C_18
REMARK    9  A    between atoms: N_8  and  C_20
REMARK   10  A    between atoms: N_8  and  C_21
REMARK   11  A    between atoms: N_9  and  C_22
REMARK   12  A    between atoms: C_16  and  C_18
REMARK                            x       y       z     vdW  Elec       q    Type
REMARK                         _______ _______ _______ _____ _____    ______ ____
ROOT
ATOM      1  O   UNL     1       3.169   1.450  -1.664  0.00  0.00    -0.342 OA
ATOM      2  O   UNL     1       4.892   1.805  -0.151  0.00  0.00    -0.347 OA
ATOM     10  C   UNL     1       3.504  -0.159   0.101  0.00  0.00    +0.143 C 
ATOM     11  C   UNL     1       1.851   1.813   0.322  0.00  0.00    +0.136 C 
ATOM     12  C   UNL     1       2.534   0.618   1.020  0.00  0.00    +0.159 C 
ATOM     13  C   UNL     1       2.732   2.470  -0.761  0.00  0.00    +0.170 C 
ATOM     14  C   UNL     1       4.188   0.796  -0.894  0.00  0.00    +0.270 C 
ATOM     15  C   UNL     1       4.068   2.977  -0.250  0.00  0.00    +0.196 C 
ENDROOT
BRANCH  11   7
ATOM      4  O   UNL     1      -0.702   1.777   1.620  0.00  0.00    -0.252 OA
ATOM      7  N   UNL     1       0.591   1.399  -0.258  0.00  0.00    -0.291 N 
ATOM      9  N   UNL     1      -1.656   0.960  -0.363  0.00  0.00    -0.269 N 
ATOM     19  C   UNL     1      -0.613   1.412   0.450  0.00  0.00    +0.304 C 
ATOM     29  H   UNL     1       0.598   1.008  -1.195  0.00  0.00    +0.151 HD
ATOM     31  H   UNL     1      -1.412   0.695  -1.314  0.00  0.00    +0.156 HD
BRANCH   9  22
ATOM     22  C   UNL     1      -3.023   0.824  -0.026  0.00  0.00    +0.038 A 
ATOM     23  C   UNL     1      -3.931   0.352  -0.974  0.00  0.00    +0.069 A 
ATOM     24  C   UNL     1      -3.463   1.163   1.254  0.00  0.00    +0.023 A 
ATOM     25  C   UNL     1      -5.280   0.218  -0.642  0.00  0.00    +0.122 A 
ATOM     26  C   UNL     1      -4.811   1.029   1.586  0.00  0.00    +0.005 A 
ATOM     27  C   UNL     1      -5.720   0.557   0.638  0.00  0.00    +0.046 A 
BRANCH  25   5
ATOM      5  O   UNL     1      -6.166  -0.241  -1.567  0.00  0.00    -0.495 OA
ATOM     28  C   UNL     1      -7.529  -0.352  -1.161  0.00  0.00    +0.277 C 
ENDBRANCH  25   5
ENDBRANCH   9  22
ENDBRANCH  11   7
BRANCH  12   3
ATOM      3  O   UNL     1       3.288   1.106   2.138  0.00  0.00    -0.388 OA
ATOM     30  H   UNL     1       2.666   1.542   2.744  0.00  0.00    +0.210 HD
ENDBRANCH  12   3
BRANCH  10   6
ATOM      6  N   UNL     1       2.780  -1.201  -0.630  0.00  0.00    -0.295 NA
ATOM     17  C   UNL     1       3.537  -1.614  -1.811  0.00  0.00    +0.105 C 
BRANCH   6  16
ATOM     16  C   UNL     1       2.521  -2.348   0.239  0.00  0.00    +0.100 C 
BRANCH  16  18
ATOM     18  C   UNL     1       1.363  -3.174  -0.311  0.00  0.00    +0.099 C 
BRANCH  18   8
ATOM      8  N   UNL     1       1.116  -4.328   0.547  0.00  0.00    -0.307 NA
ATOM     20  C   UNL     1       0.401  -5.373  -0.188  0.00  0.00    +0.104 C 
ATOM     21  C   UNL     1       0.358  -3.934   1.735  0.00  0.00    +0.104 C 
ENDBRANCH  18   8
ENDBRANCH  16  18
ENDBRANCH   6  16
ENDBRANCH  10   6
TORSDOF 8
