REMARK  Name = 45360991
REMARK  6 active torsions:
REMARK  status: ('A' for Active; 'I' for Inactive)
REMARK    1  A    between atoms: N_3  and  C_16
REMARK    2  A    between atoms: N_6  and  C_19
REMARK    3  A    between atoms: C_11  and  C_15
REMARK    4  A    between atoms: C_15  and  C_17
REMARK    5  A    between atoms: C_17  and  C_18
REMARK    6  A    between atoms: C_19  and  C_20
REMARK                            x       y       z     vdW  Elec       q    Type
REMARK                         _______ _______ _______ _____ _____    ______ ____
ROOT
ATOM      1  O   UNL     1      -4.977  -1.828   1.339  0.00  0.00    -0.274 OA
ATOM      3  N   UNL     1      -2.627   1.013   0.066  0.00  0.00    -0.296 NA
ATOM      4  N   UNL     1      -6.192   0.212   0.082  0.00  0.00    -0.304 NA
ATOM      5  N   UNL     1      -3.137  -1.835  -0.022  0.00  0.00    -0.312 N 
ATOM      8  C   UNL     1      -4.000   1.094  -0.477  0.00  0.00    +0.084 C 
ATOM      9  C   UNL     1      -4.880  -0.185  -0.449  0.00  0.00    +0.158 C 
ATOM     10  C   UNL     1      -4.899   2.114   0.246  0.00  0.00    +0.036 C 
ATOM     11  C   UNL     1      -1.723   0.091  -0.675  0.00  0.00    +0.074 C 
ATOM     12  C   UNL     1      -6.299   1.653  -0.091  0.00  0.00    +0.083 C 
ATOM     13  C   UNL     1      -2.360  -1.248  -1.095  0.00  0.00    +0.123 C 
ATOM     14  C   UNL     1      -4.359  -1.341   0.393  0.00  0.00    +0.232 C 
ATOM     16  C   UNL     1      -2.022   2.353   0.160  0.00  0.00    +0.105 C 
ATOM     25  H   UNL     1      -6.223   0.013   1.083  0.00  0.00    +0.123 HD
ATOM     26  H   UNL     1      -2.742  -2.622   0.484  0.00  0.00    +0.149 HD
ENDROOT
BRANCH  11  15
ATOM     15  C   UNL     1      -0.474  -0.232   0.172  0.00  0.00    +0.029 C 
BRANCH  15  17
ATOM     17  C   UNL     1       0.687  -0.637  -0.716  0.00  0.00    +0.097 C 
BRANCH  17  18
ATOM      2  O   UNL     1       1.967  -0.897   1.323  0.00  0.00    -0.276 OA
ATOM      6  N   UNL     1       2.990  -1.331  -0.716  0.00  0.00    -0.311 N 
ATOM     18  C   UNL     1       1.928  -0.961   0.097  0.00  0.00    +0.213 C 
ATOM     27  H   UNL     1       2.870  -1.338  -1.725  0.00  0.00    +0.149 HD
BRANCH   6  19
ATOM     19  C   UNL     1       4.282  -1.687  -0.180  0.00  0.00    +0.141 C 
BRANCH  19  20
ATOM      7  N   UNL     1       6.241   1.156   1.363  0.00  0.00    -0.263 NA
ATOM     20  C   UNL     1       5.186  -0.495  -0.054  0.00  0.00    -0.012 A 
ATOM     21  C   UNL     1       5.793   0.066  -1.172  0.00  0.00    +0.008 A 
ATOM     22  C   UNL     1       5.440   0.082   1.180  0.00  0.00    +0.115 A 
ATOM     23  C   UNL     1       6.624   1.171  -1.024  0.00  0.00    +0.020 A 
ATOM     24  C   UNL     1       6.813   1.674   0.253  0.00  0.00    +0.111 A 
ENDBRANCH  19  20
ENDBRANCH   6  19
ENDBRANCH  17  18
ENDBRANCH  15  17
ENDBRANCH  11  15
TORSDOF 5
