REMARK  Name = 7144178
REMARK  4 active torsions:
REMARK  status: ('A' for Active; 'I' for Inactive)
REMARK    1  A    between atoms: O_7  and  C_29
REMARK    2  A    between atoms: O_7  and  C_32
REMARK    3  A    between atoms: C_17  and  C_22
REMARK    4  A    between atoms: C_19  and  C_23
REMARK                            x       y       z     vdW  Elec       q    Type
REMARK                         _______ _______ _______ _____ _____    ______ ____
ROOT
ATOM      5  O   UNL     1       4.050   2.549  -1.660  0.00  0.00    -0.268 OA
ATOM      6  O   UNL     1       4.330  -1.858   0.840  0.00  0.00    -0.269 OA
ATOM      8  N   UNL     1       2.393   1.810  -0.180  0.00  0.00    -0.311 N 
ATOM      9  N   UNL     1       2.434  -0.759   1.655  0.00  0.00    -0.296 N 
ATOM     10  C   UNL     1       2.842   1.592   2.337  0.00  0.00    +0.027 C 
ATOM     11  C   UNL     1       0.650   0.956   1.418  0.00  0.00    +0.054 C 
ATOM     12  C   UNL     1       1.343   1.814   2.475  0.00  0.00    +0.018 C 
ATOM     13  C   UNL     1       3.281   2.090   0.958  0.00  0.00    +0.130 C 
ATOM     14  C   UNL     1       3.192   0.110   2.553  0.00  0.00    +0.113 C 
ATOM     15  C   UNL     1       0.982  -0.532   1.663  0.00  0.00    +0.117 C 
ATOM     16  C   UNL     1       1.070   1.359   0.002  0.00  0.00    +0.034 A 
ATOM     17  C   UNL     1       0.234   1.263  -1.065  0.00  0.00    +0.002 A 
ATOM     18  C   UNL     1       2.909   2.138  -1.446  0.00  0.00    +0.252 A 
ATOM     19  C   UNL     1       3.115  -1.671   0.844  0.00  0.00    +0.253 C 
ATOM     20  C   UNL     1       0.734   1.589  -2.387  0.00  0.00    +0.015 A 
ATOM     21  C   UNL     1       1.989   1.987  -2.595  0.00  0.00    +0.071 A 
ENDROOT
BRANCH  17  22
ATOM     22  C   UNL     1      -1.169   0.818  -0.918  0.00  0.00    -0.016 A 
ATOM     24  C   UNL     1      -1.476  -0.537  -1.000  0.00  0.00    +0.012 A 
ATOM     25  C   UNL     1      -2.172   1.757  -0.699  0.00  0.00    +0.012 A 
ATOM     27  C   UNL     1      -2.799  -0.956  -0.861  0.00  0.00    +0.046 A 
ATOM     28  C   UNL     1      -3.495   1.338  -0.561  0.00  0.00    +0.046 A 
ATOM     29  C   UNL     1      -3.809  -0.019  -0.642  0.00  0.00    +0.130 A 
BRANCH  29   7
ATOM      7  O   UNL     1      -5.099  -0.429  -0.507  0.00  0.00    -0.406 OA
BRANCH   7  32
ATOM      2  F   UNL     1      -4.914  -0.085   1.746  0.00  0.00    -0.133 F 
ATOM      3  F   UNL     1      -6.672  -1.116   0.958  0.00  0.00    -0.133 F 
ATOM      4  F   UNL     1      -6.453   1.031   0.619  0.00  0.00    -0.133 F 
ATOM     32  C   UNL     1      -5.777  -0.134   0.709  0.00  0.00    +0.575 C 
ENDBRANCH   7  32
ENDBRANCH  29   7
ENDBRANCH  17  22
BRANCH  19  23
ATOM      1  S   UNL     1       1.715  -3.982   0.399  0.00  0.00    -0.092 S 
ATOM     23  C   UNL     1       2.334  -2.471  -0.107  0.00  0.00    +0.074 A 
ATOM     26  C   UNL     1       2.006  -2.179  -1.408  0.00  0.00    +0.021 A 
ATOM     30  C   UNL     1       1.231  -3.215  -2.005  0.00  0.00    +0.008 A 
ATOM     31  C   UNL     1       1.000  -4.256  -1.133  0.00  0.00    +0.046 A 
ENDBRANCH  19  23
TORSDOF 4
