REMARK  Name = 7662935
REMARK  7 active torsions:
REMARK  status: ('A' for Active; 'I' for Inactive)
REMARK    1  A    between atoms: O_3  and  C_22
REMARK    2  A    between atoms: O_3  and  C_28
REMARK    3  A    between atoms: O_4  and  C_30
REMARK    4  A    between atoms: C_16  and  C_21
REMARK    5  A    between atoms: C_18  and  C_22
REMARK    6  A    between atoms: C_25  and  C_29
REMARK    7  A    between atoms: C_28  and  C_30
REMARK                            x       y       z     vdW  Elec       q    Type
REMARK                         _______ _______ _______ _____ _____    ______ ____
ROOT
ATOM      1  O   UNL     1      -0.667  -3.663   2.603  0.00  0.00    -0.268 OA
ATOM      2  O   UNL     1       2.870  -2.167  -1.002  0.00  0.00    -0.273 OA
ATOM      6  N   UNL     1       0.741  -1.539  -1.685  0.00  0.00    -0.299 N 
ATOM      7  N   UNL     1      -1.175  -2.376   0.714  0.00  0.00    -0.311 N 
ATOM      9  C   UNL     1      -0.982  -3.337  -1.655  0.00  0.00    +0.027 C 
ATOM     10  C   UNL     1      -1.664  -0.998  -1.332  0.00  0.00    +0.054 C 
ATOM     11  C   UNL     1      -2.053  -2.315  -2.002  0.00  0.00    +0.018 C 
ATOM     12  C   UNL     1       0.396  -2.878  -2.161  0.00  0.00    +0.113 C 
ATOM     13  C   UNL     1      -0.991  -3.557  -0.142  0.00  0.00    +0.130 C 
ATOM     14  C   UNL     1      -0.303  -0.524  -1.884  0.00  0.00    +0.117 C 
ATOM     15  C   UNL     1      -1.598  -1.137   0.191  0.00  0.00    +0.034 A 
ATOM     16  C   UNL     1      -1.901  -0.116   1.034  0.00  0.00    +0.002 A 
ATOM     17  C   UNL     1      -1.019  -2.599   2.093  0.00  0.00    +0.252 A 
ATOM     18  C   UNL     1       2.009  -1.297  -1.159  0.00  0.00    +0.241 C 
ATOM     19  C   UNL     1      -1.748  -0.308   2.464  0.00  0.00    +0.015 A 
ATOM     20  C   UNL     1      -1.322  -1.458   2.986  0.00  0.00    +0.071 A 
ENDROOT
BRANCH  16  21
ATOM     21  C   UNL     1      -2.367   1.196   0.534  0.00  0.00    -0.015 A 
ATOM     23  C   UNL     1      -1.440   2.188   0.228  0.00  0.00    +0.027 A 
ATOM     24  C   UNL     1      -3.729   1.429   0.372  0.00  0.00    +0.008 A 
ATOM     25  C   UNL     1      -1.880   3.425  -0.244  0.00  0.00    +0.052 A 
ATOM     26  C   UNL     1      -4.169   2.666  -0.100  0.00  0.00    +0.002 A 
ATOM     27  C   UNL     1      -3.244   3.664  -0.408  0.00  0.00    +0.019 A 
BRANCH  25  29
ATOM      8  N   UNL     1      -0.164   5.280  -0.815  0.00  0.00    -0.191 NA
ATOM     29  C   UNL     1      -0.933   4.448  -0.559  0.00  0.00    +0.099 C 
ENDBRANCH  25  29
ENDBRANCH  16  21
BRANCH  18  22
ATOM     22  C   UNL     1       2.315   0.124  -0.758  0.00  0.00    +0.256 C 
BRANCH  22   3
ATOM      3  O   UNL     1       3.619   0.121  -0.229  0.00  0.00    -0.359 OA
BRANCH   3  28
ATOM     28  C   UNL     1       4.029   1.421   0.192  0.00  0.00    +0.280 C 
BRANCH  28  30
ATOM      5  O   UNL     1       6.108   0.350   0.854  0.00  0.00    -0.248 OA
ATOM     30  C   UNL     1       5.425   1.358   0.747  0.00  0.00    +0.331 C 
BRANCH  30   4
ATOM      4  O   UNL     1       5.836   2.596   1.121  0.00  0.00    -0.479 OA
ATOM     31  H   UNL     1       6.746   2.584   1.488  0.00  0.00    +0.295 HD
ENDBRANCH  30   4
ENDBRANCH  28  30
ENDBRANCH   3  28
ENDBRANCH  22   3
ENDBRANCH  18  22
TORSDOF 7
