REMARK  Name = 11867244
REMARK  7 active torsions:
REMARK  status: ('A' for Active; 'I' for Inactive)
REMARK    1  A    between atoms: S_1  and  N_9
REMARK    2  A    between atoms: S_1  and  C_29
REMARK    3  A    between atoms: N_7  and  C_18
REMARK    4  A    between atoms: N_9  and  C_21
REMARK    5  A    between atoms: N_10  and  C_34
REMARK    6  A    between atoms: C_18  and  C_23
REMARK    7  A    between atoms: C_35  and  C_36
REMARK                            x       y       z     vdW  Elec       q    Type
REMARK                         _______ _______ _______ _____ _____    ______ ____
ROOT
ATOM      3  O   UNL     1      -1.152   3.491   1.046  0.00  0.00    -0.266 OA
ATOM      7  N   UNL     1      -4.218  -0.434   0.430  0.00  0.00    -0.297 NA
ATOM      8  N   UNL     1      -2.523   2.163  -0.313  0.00  0.00    -0.310 N 
ATOM     11  C   UNL     1      -5.044   1.904   0.063  0.00  0.00    +0.024 C 
ATOM     12  C   UNL     1      -3.962   0.705  -1.779  0.00  0.00    +0.050 C 
ATOM     13  C   UNL     1      -5.094   1.671  -1.441  0.00  0.00    +0.017 C 
ATOM     14  C   UNL     1      -5.222   0.567   0.812  0.00  0.00    +0.090 C 
ATOM     15  C   UNL     1      -4.179  -0.628  -1.027  0.00  0.00    +0.094 C 
ATOM     16  C   UNL     1      -3.723   2.603   0.412  0.00  0.00    +0.130 C 
ATOM     17  C   UNL     1      -2.615   1.305  -1.417  0.00  0.00    +0.026 A 
ATOM     19  C   UNL     1      -1.520   1.000  -2.137  0.00  0.00    +0.024 A 
ATOM     20  C   UNL     1      -1.294   2.722   0.096  0.00  0.00    +0.274 A 
ATOM     21  C   UNL     1      -0.119   2.331  -0.723  0.00  0.00    +0.112 A 
ATOM     22  C   UNL     1      -0.230   1.527  -1.782  0.00  0.00    +0.031 A 
ENDROOT
BRANCH  21   9
ATOM      9  N   UNL     1       1.160   2.822  -0.406  0.00  0.00    -0.211 N 
ATOM     37  H   UNL     1       1.829   2.721  -1.183  0.00  0.00    +0.174 HD
BRANCH   9   1
ATOM      1  S   UNL     1       1.782   2.424   1.116  0.00  0.00    +0.072 S 
ATOM      4  O   UNL     1       2.205   3.630   1.802  0.00  0.00    -0.150 OA
ATOM      5  O   UNL     1       0.897   1.481   1.774  0.00  0.00    -0.150 OA
BRANCH   1  29
ATOM     29  C   UNL     1       3.244   1.541   0.653  0.00  0.00    +0.109 A 
ATOM     30  C   UNL     1       3.174   0.172   0.463  0.00  0.00    +0.030 A 
ATOM     31  C   UNL     1       4.428   2.237   0.490  0.00  0.00    +0.030 A 
ATOM     32  C   UNL     1       4.326  -0.523   0.098  0.00  0.00    +0.025 A 
ATOM     33  C   UNL     1       5.580   1.541   0.124  0.00  0.00    +0.025 A 
ATOM     34  C   UNL     1       5.529   0.161  -0.071  0.00  0.00    +0.033 A 
BRANCH  34  10
ATOM      6  O   UNL     1       5.954  -2.770  -0.614  0.00  0.00    -0.276 OA
ATOM     10  N   UNL     1       6.682  -0.534  -0.438  0.00  0.00    -0.286 N 
ATOM     35  C   UNL     1       6.824  -1.908  -0.677  0.00  0.00    +0.214 C 
ATOM     36  C   UNL     1       8.240  -2.267  -1.052  0.00  0.00    +0.109 C 
ATOM     38  H   UNL     1       7.519   0.035  -0.541  0.00  0.00    +0.155 HD
ENDBRANCH  34  10
ENDBRANCH   1  29
ENDBRANCH   9   1
ENDBRANCH  21   9
BRANCH   7  18
ATOM     18  C   UNL     1      -4.452  -1.700   1.120  0.00  0.00    +0.119 C 
BRANCH  18  23
ATOM      2  F   UNL     1      -0.414  -5.454   0.027  0.00  0.00    -0.205 F 
ATOM     23  C   UNL     1      -3.371  -2.707   0.828  0.00  0.00    -0.033 A 
ATOM     24  C   UNL     1      -3.510  -3.564  -0.255  0.00  0.00    +0.008 A 
ATOM     25  C   UNL     1      -2.250  -2.761   1.644  0.00  0.00    +0.008 A 
ATOM     26  C   UNL     1      -2.508  -4.495  -0.526  0.00  0.00    +0.038 A 
ATOM     27  C   UNL     1      -1.248  -3.693   1.373  0.00  0.00    +0.038 A 
ATOM     28  C   UNL     1      -1.377  -4.560   0.288  0.00  0.00    +0.123 A 
ENDBRANCH  18  23
ENDBRANCH   7  18
TORSDOF 6
