REMARK  Name = 26742295
REMARK  5 active torsions:
REMARK  status: ('A' for Active; 'I' for Inactive)
REMARK    1  A    between atoms: O_4  and  C_27
REMARK    2  A    between atoms: O_4  and  C_33
REMARK    3  A    between atoms: C_14  and  C_19
REMARK    4  A    between atoms: C_16  and  C_20
REMARK    5  A    between atoms: C_21  and  C_24
REMARK                            x       y       z     vdW  Elec       q    Type
REMARK                         _______ _______ _______ _____ _____    ______ ____
ROOT
ATOM      2  O   UNL     1      -4.323  -1.112  -2.629  0.00  0.00    -0.268 OA
ATOM      3  O   UNL     1      -3.391   2.653   0.803  0.00  0.00    -0.270 OA
ATOM      5  N   UNL     1      -2.501   0.669   1.667  0.00  0.00    -0.297 N 
ATOM      6  N   UNL     1      -3.012  -1.380  -0.706  0.00  0.00    -0.311 N 
ATOM      7  C   UNL     1      -4.047  -1.279   1.638  0.00  0.00    +0.027 C 
ATOM      8  C   UNL     1      -1.629  -1.635   1.376  0.00  0.00    +0.054 C 
ATOM      9  C   UNL     1      -2.896  -2.194   2.023  0.00  0.00    +0.018 C 
ATOM     10  C   UNL     1      -3.791   0.158   2.126  0.00  0.00    +0.113 C 
ATOM     11  C   UNL     1      -4.226  -1.351   0.121  0.00  0.00    +0.130 C 
ATOM     12  C   UNL     1      -1.357  -0.220   1.925  0.00  0.00    +0.117 C 
ATOM     13  C   UNL     1      -1.731  -1.589  -0.152  0.00  0.00    +0.034 A 
ATOM     14  C   UNL     1      -0.644  -1.708  -0.961  0.00  0.00    -0.005 A 
ATOM     15  C   UNL     1      -3.228  -1.280  -2.091  0.00  0.00    +0.252 A 
ATOM     16  C   UNL     1      -2.439   1.906   1.021  0.00  0.00    +0.247 C 
ATOM     17  C   UNL     1      -0.841  -1.612  -2.399  0.00  0.00    +0.015 A 
ATOM     18  C   UNL     1      -2.034  -1.403  -2.954  0.00  0.00    +0.071 A 
ENDROOT
BRANCH  16  20
ATOM     20  C   UNL     1      -1.132   2.362   0.536  0.00  0.00    +0.037 A 
ATOM     22  C   UNL     1      -0.715   2.036  -0.754  0.00  0.00    +0.016 A 
ATOM     23  C   UNL     1      -0.307   3.122   1.365  0.00  0.00    +0.016 A 
ATOM     25  C   UNL     1       0.528   2.470  -1.216  0.00  0.00    +0.046 A 
ATOM     26  C   UNL     1       0.936   3.556   0.904  0.00  0.00    +0.046 A 
ATOM     27  C   UNL     1       1.353   3.230  -0.387  0.00  0.00    +0.120 A 
BRANCH  27   4
ATOM      4  O   UNL     1       2.567   3.652  -0.837  0.00  0.00    -0.495 OA
ATOM     33  C   UNL     1       2.931   3.283  -2.166  0.00  0.00    +0.277 C 
ENDBRANCH  27   4
ENDBRANCH  16  20
BRANCH  14  19
ATOM     19  C   UNL     1       0.705  -1.890  -0.450  0.00  0.00    +0.010 C 
ATOM     21  C   UNL     1       1.683  -1.017  -0.686  0.00  0.00    +0.008 C 
BRANCH  21  24
ATOM      1 CL   UNL     1       7.298  -1.612   1.296  0.00  0.00    -0.084 Cl
ATOM     24  C   UNL     1       3.065  -1.163  -0.198  0.00  0.00    -0.025 A 
ATOM     28  C   UNL     1       3.339  -2.007   0.879  0.00  0.00    +0.009 A 
ATOM     29  C   UNL     1       4.100  -0.459  -0.812  0.00  0.00    +0.009 A 
ATOM     30  C   UNL     1       4.648  -2.146   1.341  0.00  0.00    +0.020 A 
ATOM     31  C   UNL     1       5.409  -0.597  -0.350  0.00  0.00    +0.020 A 
ATOM     32  C   UNL     1       5.683  -1.441   0.726  0.00  0.00    +0.041 A 
ENDBRANCH  21  24
ENDBRANCH  14  19
TORSDOF 4
