REMARK  Name = 40777987
REMARK  9 active torsions:
REMARK  status: ('A' for Active; 'I' for Inactive)
REMARK    1  A    between atoms: O_2  and  C_11
REMARK    2  A    between atoms: O_3  and  C_12
REMARK    3  A    between atoms: N_7  and  C_21
REMARK    4  A    between atoms: N_8  and  C_15
REMARK    5  A    between atoms: N_9  and  C_28
REMARK    6  A    between atoms: C_10  and  C_14
REMARK    7  A    between atoms: C_13  and  C_15
REMARK    8  A    between atoms: C_14  and  C_16
REMARK    9  A    between atoms: C_33  and  C_34
REMARK                            x       y       z     vdW  Elec       q    Type
REMARK                         _______ _______ _______ _____ _____    ______ ____
ROOT
ATOM      1  O   UNL     1      -4.034   0.928   0.953  0.00  0.00    -0.366 OA
ATOM     10  C   UNL     1      -3.715   1.788  -0.165  0.00  0.00    +0.159 C 
ATOM     11  C   UNL     1      -4.700   1.435  -1.274  0.00  0.00    +0.175 C 
ATOM     12  C   UNL     1      -4.998  -0.020  -0.979  0.00  0.00    +0.176 C 
ATOM     13  C   UNL     1      -5.032  -0.023   0.540  0.00  0.00    +0.167 C 
ENDROOT
BRANCH  11   2
ATOM      2  O   UNL     1      -5.873   2.228  -1.093  0.00  0.00    -0.387 OA
ATOM     35  H   UNL     1      -5.629   3.153  -1.267  0.00  0.00    +0.210 HD
ENDBRANCH  11   2
BRANCH  12   3
ATOM      3  O   UNL     1      -6.216  -0.465  -1.537  0.00  0.00    -0.387 OA
ATOM     36  H   UNL     1      -6.175  -0.306  -2.495  0.00  0.00    +0.210 HD
ENDBRANCH  12   3
BRANCH  10  14
ATOM     14  C   UNL     1      -2.265   1.531  -0.551  0.00  0.00    +0.130 C 
BRANCH  14  16
ATOM      4  O   UNL     1      -1.819   2.903   1.335  0.00  0.00    -0.276 OA
ATOM      6  N   UNL     1       0.025   2.050   0.206  0.00  0.00    -0.298 N 
ATOM      7  N   UNL     1       2.872   1.576  -0.015  0.00  0.00    -0.327 N 
ATOM     16  C   UNL     1      -1.343   2.225   0.421  0.00  0.00    +0.218 C 
ATOM     17  C   UNL     1       0.588   1.245  -0.880  0.00  0.00    +0.126 C 
ATOM     18  C   UNL     1       0.982   2.685   1.108  0.00  0.00    +0.126 C 
ATOM     19  C   UNL     1       2.030   1.627  -1.213  0.00  0.00    +0.124 C 
ATOM     20  C   UNL     1       2.246   1.845   1.282  0.00  0.00    +0.124 C 
BRANCH   7  21
ATOM     21  C   UNL     1       4.237   1.316  -0.106  0.00  0.00    +0.030 A 
ATOM     23  C   UNL     1       4.947   1.701  -1.243  0.00  0.00    +0.023 A 
ATOM     24  C   UNL     1       4.894   0.669   0.941  0.00  0.00    +0.023 A 
ATOM     25  C   UNL     1       6.314   1.440  -1.334  0.00  0.00    +0.002 A 
ATOM     26  C   UNL     1       6.261   0.407   0.850  0.00  0.00    +0.002 A 
ATOM     27  C   UNL     1       6.971   0.793  -0.287  0.00  0.00    +0.000 A 
ENDBRANCH   7  21
ENDBRANCH  14  16
ENDBRANCH  10  14
BRANCH  13  15
ATOM     15  C   UNL     1      -4.727  -1.381   1.147  0.00  0.00    +0.140 C 
BRANCH  15   8
ATOM      5  O   UNL     1      -1.918  -1.203   1.679  0.00  0.00    -0.253 OA
ATOM      8  N   UNL     1      -3.676  -2.042   0.432  0.00  0.00    -0.297 N 
ATOM      9  N   UNL     1      -1.524  -2.666  -0.113  0.00  0.00    -0.269 N 
ATOM     22  C   UNL     1      -2.315  -1.906   0.753  0.00  0.00    +0.304 C 
ATOM     37  H   UNL     1      -3.930  -2.659  -0.334  0.00  0.00    +0.150 HD
ATOM     38  H   UNL     1      -2.014  -3.194  -0.832  0.00  0.00    +0.156 HD
BRANCH   9  28
ATOM     28  C   UNL     1      -0.116  -2.793  -0.117  0.00  0.00    +0.035 A 
ATOM     29  C   UNL     1       0.509  -3.603  -1.066  0.00  0.00    +0.023 A 
ATOM     30  C   UNL     1       0.649  -2.109   0.828  0.00  0.00    +0.023 A 
ATOM     31  C   UNL     1       1.898  -3.728  -1.070  0.00  0.00    +0.005 A 
ATOM     32  C   UNL     1       2.038  -2.234   0.824  0.00  0.00    +0.005 A 
ATOM     33  C   UNL     1       2.663  -3.043  -0.125  0.00  0.00    -0.050 A 
ATOM     34  C   UNL     1       4.148  -3.177  -0.129  0.00  0.00    +0.044 C 
ENDBRANCH   9  28
ENDBRANCH  15   8
ENDBRANCH  13  15
TORSDOF 8
