REMARK  Name = 71694015
REMARK  7 active torsions:
REMARK  status: ('A' for Active; 'I' for Inactive)
REMARK    1  A    between atoms: S_1  and  N_9
REMARK    2  A    between atoms: S_1  and  C_18
REMARK    3  A    between atoms: O_5  and  C_12
REMARK    4  A    between atoms: O_6  and  C_14
REMARK    5  A    between atoms: N_9  and  C_10
REMARK    6  A    between atoms: C_11  and  C_15
REMARK    7  A    between atoms: C_26  and  C_27
REMARK                            x       y       z     vdW  Elec       q    Type
REMARK                         _______ _______ _______ _____ _____    ______ ____
ROOT
ATOM      9  N   UNL     1       0.921   0.819  -1.706  0.00  0.00    -0.184 NA
ATOM     28  H   UNL     1       0.955   0.780  -2.732  0.00  0.00    +0.148 HD
ENDROOT
BRANCH   9  10
ATOM     10  C   UNL     1       1.242  -0.420  -0.959  0.00  0.00    +0.115 C 
ATOM     11  C   UNL     1       2.749  -0.733  -1.067  0.00  0.00    +0.043 C 
ATOM     12  C   UNL     1       0.575  -1.620  -1.624  0.00  0.00    +0.162 C 
ATOM     13  C   UNL     1       2.848  -2.273  -1.220  0.00  0.00    +0.043 C 
ATOM     14  C   UNL     1       1.414  -2.794  -1.134  0.00  0.00    +0.145 C 
BRANCH  11  15
ATOM     15  C   UNL     1       3.554  -0.169   0.085  0.00  0.00    -0.043 A 
ATOM     16  C   UNL     1       4.077   1.122   0.004  0.00  0.00    +0.004 A 
ATOM     17  C   UNL     1       3.771  -0.939   1.227  0.00  0.00    +0.004 A 
ATOM     19  C   UNL     1       4.818   1.642   1.065  0.00  0.00    +0.000 A 
ATOM     20  C   UNL     1       4.512  -0.420   2.288  0.00  0.00    +0.000 A 
ATOM     21  C   UNL     1       5.036   0.871   2.207  0.00  0.00    +0.000 A 
ENDBRANCH  11  15
BRANCH  12   5
ATOM      5  O   UNL     1      -0.779  -1.762  -1.238  0.00  0.00    -0.388 OA
ATOM     29  H   UNL     1      -1.107  -2.593  -1.622  0.00  0.00    +0.210 HD
ENDBRANCH  12   5
BRANCH  14   6
ATOM      6  O   UNL     1       1.120  -3.098   0.226  0.00  0.00    -0.389 OA
ATOM     30  H   UNL     1       1.709  -3.823   0.497  0.00  0.00    +0.210 HD
ENDBRANCH  14   6
ENDBRANCH   9  10
BRANCH   9   1
ATOM      1  S   UNL     1       0.150   2.109  -0.915  0.00  0.00    +0.059 S 
ATOM      7  O   UNL     1      -0.179   3.140  -1.881  0.00  0.00    -0.153 OA
ATOM      8  O   UNL     1       0.902   2.442   0.280  0.00  0.00    -0.153 OA
BRANCH   1  18
ATOM     18  C   UNL     1      -1.359   1.360  -0.383  0.00  0.00    +0.105 A 
ATOM     22  C   UNL     1      -1.428   0.742   0.866  0.00  0.00    +0.029 A 
ATOM     23  C   UNL     1      -2.481   1.385  -1.211  0.00  0.00    +0.029 A 
ATOM     24  C   UNL     1      -2.618   0.149   1.287  0.00  0.00    +0.014 A 
ATOM     25  C   UNL     1      -3.672   0.793  -0.790  0.00  0.00    +0.014 A 
ATOM     26  C   UNL     1      -3.740   0.175   0.459  0.00  0.00    +0.055 A 
BRANCH  26  27
ATOM      2  F   UNL     1      -4.912  -1.016   2.151  0.00  0.00    -0.166 F 
ATOM      3  F   UNL     1      -6.062   0.414   0.984  0.00  0.00    -0.166 F 
ATOM      4  F   UNL     1      -5.445  -1.463   0.090  0.00  0.00    -0.166 F 
ATOM     27  C   UNL     1      -5.014  -0.458   0.909  0.00  0.00    +0.417 C 
ENDBRANCH  26  27
ENDBRANCH   1  18
ENDBRANCH   9   1
TORSDOF 7
