REMARK  Name = 7687250
REMARK  6 active torsions:
REMARK  status: ('A' for Active; 'I' for Inactive)
REMARK    1  A    between atoms: S_2  and  N_6
REMARK    2  A    between atoms: S_2  and  C_17
REMARK    3  A    between atoms: C_15  and  C_20
REMARK    4  A    between atoms: C_17  and  C_21
REMARK    5  A    between atoms: C_21  and  C_22
REMARK    6  A    between atoms: C_23  and  C_24
REMARK                            x       y       z     vdW  Elec       q    Type
REMARK                         _______ _______ _______ _____ _____    ______ ____
ROOT
ATOM      5  O   UNL     1       3.656  -3.584   1.109  0.00  0.00    -0.268 OA
ATOM      6  N   UNL     1       2.194   1.023  -0.087  0.00  0.00    -0.180 NA
ATOM      7  N   UNL     1       2.312  -2.136  -0.149  0.00  0.00    -0.311 N 
ATOM      8  C   UNL     1       3.336  -0.428  -1.764  0.00  0.00    +0.025 C 
ATOM      9  C   UNL     1       0.900  -0.558  -1.503  0.00  0.00    +0.052 C 
ATOM     10  C   UNL     1       2.033  -0.589  -2.526  0.00  0.00    +0.017 C 
ATOM     11  C   UNL     1       3.365   0.906  -1.002  0.00  0.00    +0.114 C 
ATOM     12  C   UNL     1       0.894   0.807  -0.788  0.00  0.00    +0.118 C 
ATOM     13  C   UNL     1       3.507  -1.634  -0.841  0.00  0.00    +0.130 C 
ATOM     14  C   UNL     1       1.014  -1.695  -0.481  0.00  0.00    +0.033 A 
ATOM     15  C   UNL     1      -0.075  -2.259   0.109  0.00  0.00    -0.005 A 
ATOM     16  C   UNL     1       2.547  -3.152   0.793  0.00  0.00    +0.252 A 
ATOM     18  C   UNL     1       0.141  -3.314   1.087  0.00  0.00    +0.015 A 
ATOM     19  C   UNL     1       1.354  -3.744   1.433  0.00  0.00    +0.071 A 
ENDROOT
BRANCH   6   2
ATOM      2  S   UNL     1       2.236   2.340   1.004  0.00  0.00    +0.032 S 
ATOM      3  O   UNL     1       3.596   2.521   1.465  0.00  0.00    -0.158 OA
ATOM      4  O   UNL     1       1.131   2.216   1.929  0.00  0.00    -0.158 OA
BRANCH   2  17
ATOM     17  C   UNL     1       1.861   3.657  -0.124  0.00  0.00    +0.185 C 
BRANCH  17  21
ATOM     21  C   UNL     1       1.828   5.001   0.584  0.00  0.00    +0.021 C 
ATOM     22  C   UNL     1       1.488   6.128  -0.376  0.00  0.00    +0.005 C 
ENDBRANCH  17  21
ENDBRANCH   2  17
ENDBRANCH   6   2
BRANCH  15  20
ATOM     20  C   UNL     1      -1.435  -1.832  -0.173  0.00  0.00    +0.010 C 
ATOM     23  C   UNL     1      -2.036  -0.861   0.512  0.00  0.00    +0.008 C 
BRANCH  23  24
ATOM      1 CL   UNL     1      -7.617   1.003  -0.469  0.00  0.00    -0.084 Cl
ATOM     24  C   UNL     1      -3.415  -0.401   0.270  0.00  0.00    -0.025 A 
ATOM     25  C   UNL     1      -4.016  -0.671  -0.949  0.00  0.00    +0.009 A 
ATOM     26  C   UNL     1      -4.083   0.293   1.266  0.00  0.00    +0.009 A 
ATOM     27  C   UNL     1      -5.321  -0.235  -1.178  0.00  0.00    +0.020 A 
ATOM     28  C   UNL     1      -5.388   0.729   1.036  0.00  0.00    +0.020 A 
ATOM     29  C   UNL     1      -6.007   0.465  -0.186  0.00  0.00    +0.041 A 
ENDBRANCH  23  24
ENDBRANCH  15  20
TORSDOF 5
