REMARK  Name = 38029350
REMARK  15 active torsions:
REMARK  status: ('A' for Active; 'I' for Inactive)
REMARK    1  A    between atoms: O_3  and  C_23
REMARK    2  A    between atoms: O_3  and  C_30
REMARK    3  A    between atoms: N_4  and  C_14
REMARK    4  A    between atoms: N_5  and  C_22
REMARK    5  A    between atoms: C_7  and  C_11
REMARK    6  A    between atoms: C_8  and  C_14
REMARK    7  A    between atoms: C_10  and  C_15
REMARK    8  A    between atoms: C_11  and  C_16
REMARK    9  A    between atoms: C_11  and  C_17
REMARK   10  A    between atoms: C_12  and  C_18
REMARK   11  A    between atoms: C_15  and  C_19
REMARK   12  A    between atoms: C_20  and  C_21
REMARK   13  A    between atoms: C_21  and  C_23
REMARK   14  A    between atoms: C_22  and  C_24
REMARK   15  A    between atoms: C_29  and  C_31
REMARK                            x       y       z     vdW  Elec       q    Type
REMARK                         _______ _______ _______ _____ _____    ______ ____
ROOT
ATOM      7  C   UNL     1      -2.743   0.089   1.200  0.00  0.00    +0.000 C 
ATOM      8  C   UNL     1      -4.140  -0.076   0.551  0.00  0.00    +0.032 C 
ATOM      9  C   UNL     1      -2.337   1.571   1.230  0.00  0.00    +0.012 C 
ATOM     10  C   UNL     1      -2.297   2.192  -0.179  0.00  0.00    +0.023 C 
ATOM     12  C   UNL     1      -3.534   1.845  -0.983  0.00  0.00    -0.073 C 
ATOM     13  C   UNL     1      -4.353   0.837  -0.633  0.00  0.00    -0.022 C 
ATOM     18  C   UNL     1      -3.834   2.714  -2.172  0.00  0.00    +0.039 C 
ENDROOT
BRANCH   7  11
ATOM     11  C   UNL     1      -2.703  -0.488   2.619  0.00  0.00    -0.013 C 
ATOM     16  C   UNL     1      -1.275  -0.865   3.000  0.00  0.00    +0.007 C 
ATOM     17  C   UNL     1      -3.283   0.510   3.616  0.00  0.00    +0.007 C 
ENDBRANCH   7  11
BRANCH   8  14
ATOM     14  C   UNL     1      -4.385  -1.528   0.127  0.00  0.00    +0.112 C 
BRANCH  14   4
ATOM      2  O   UNL     1      -2.443  -3.662   0.192  0.00  0.00    -0.276 OA
ATOM      4  N   UNL     1      -3.489  -1.909  -0.919  0.00  0.00    -0.315 N 
ATOM     20  C   UNL     1      -2.576  -2.959  -0.805  0.00  0.00    +0.215 C 
ATOM     32  H   UNL     1      -3.557  -1.419  -1.807  0.00  0.00    +0.149 HD
BRANCH  20  21
ATOM     21  C   UNL     1      -1.754  -3.140  -2.071  0.00  0.00    +0.124 C 
BRANCH  21  23
ATOM     23  C   UNL     1      -0.472  -2.322  -2.069  0.00  0.00    +0.168 C 
BRANCH  23   3
ATOM      3  O   UNL     1       0.354  -2.740  -0.990  0.00  0.00    -0.382 OA
ATOM     30  C   UNL     1       1.571  -2.009  -0.951  0.00  0.00    +0.194 C 
ENDBRANCH  23   3
ENDBRANCH  21  23
ENDBRANCH  20  21
ENDBRANCH  14   4
ENDBRANCH   8  14
BRANCH  10  15
ATOM     15  C   UNL     1      -1.024   1.783  -0.927  0.00  0.00    +0.103 C 
BRANCH  15  19
ATOM      1  O   UNL     1       0.166   3.332   0.501  0.00  0.00    -0.276 OA
ATOM      5  N   UNL     1       1.339   2.107  -1.089  0.00  0.00    -0.311 N 
ATOM     19  C   UNL     1       0.198   2.505  -0.406  0.00  0.00    +0.214 C 
ATOM     33  H   UNL     1       1.256   1.428  -1.840  0.00  0.00    +0.149 HD
BRANCH   5  22
ATOM     22  C   UNL     1       2.653   2.635  -0.803  0.00  0.00    +0.139 C 
BRANCH  22  24
ATOM     24  C   UNL     1       3.612   1.558  -0.383  0.00  0.00    -0.030 A 
ATOM     25  C   UNL     1       3.530   1.012   0.898  0.00  0.00    +0.006 A 
ATOM     26  C   UNL     1       4.584   1.104  -1.274  0.00  0.00    +0.006 A 
ATOM     27  C   UNL     1       4.420   0.011   1.288  0.00  0.00    +0.019 A 
ATOM     28  C   UNL     1       5.474   0.103  -0.884  0.00  0.00    +0.019 A 
ATOM     29  C   UNL     1       5.392  -0.443   0.397  0.00  0.00    +0.052 A 
BRANCH  29  31
ATOM      6  N   UNL     1       7.045  -2.300   1.122  0.00  0.00    -0.191 NA
ATOM     31  C   UNL     1       6.304  -1.468   0.797  0.00  0.00    +0.099 C 
ENDBRANCH  29  31
ENDBRANCH  22  24
ENDBRANCH   5  22
ENDBRANCH  15  19
ENDBRANCH  10  15
TORSDOF 11
