REMARK  Name = 71693114
REMARK  12 active torsions:
REMARK  status: ('A' for Active; 'I' for Inactive)
REMARK    1  A    between atoms: O_3  and  C_30
REMARK    2  A    between atoms: N_5  and  C_15
REMARK    3  A    between atoms: C_8  and  C_12
REMARK    4  A    between atoms: C_9  and  C_15
REMARK    5  A    between atoms: C_11  and  C_16
REMARK    6  A    between atoms: C_12  and  C_17
REMARK    7  A    between atoms: C_12  and  C_18
REMARK    8  A    between atoms: C_13  and  C_19
REMARK    9  A    between atoms: C_16  and  C_20
REMARK   10  A    between atoms: C_21  and  C_24
REMARK   11  A    between atoms: C_24  and  C_27
REMARK   12  A    between atoms: C_27  and  C_30
REMARK                            x       y       z     vdW  Elec       q    Type
REMARK                         _______ _______ _______ _____ _____    ______ ____
ROOT
ATOM      8  C   UNL     1       0.888   1.941  -0.858  0.00  0.00    +0.000 C 
ATOM      9  C   UNL     1       2.003   2.801  -0.214  0.00  0.00    +0.032 C 
ATOM     10  C   UNL     1      -0.472   2.260  -0.219  0.00  0.00    +0.012 C 
ATOM     11  C   UNL     1      -0.476   2.005   1.300  0.00  0.00    +0.022 C 
ATOM     13  C   UNL     1       0.745   2.599   1.974  0.00  0.00    -0.073 C 
ATOM     14  C   UNL     1       1.838   2.962   1.279  0.00  0.00    -0.022 C 
ATOM     19  C   UNL     1       0.662   2.811   3.460  0.00  0.00    +0.039 C 
ENDROOT
BRANCH   8  12
ATOM     12  C   UNL     1       0.811   2.151  -2.374  0.00  0.00    -0.013 C 
ATOM     17  C   UNL     1       0.185   0.935  -3.049  0.00  0.00    +0.007 C 
ATOM     18  C   UNL     1       0.020   3.416  -2.695  0.00  0.00    +0.007 C 
ENDBRANCH   8  12
BRANCH   9  15
ATOM     15  C   UNL     1       3.391   2.223  -0.514  0.00  0.00    +0.112 C 
BRANCH  15   5
ATOM      2  O   UNL     1       3.933  -0.305  -1.812  0.00  0.00    -0.276 OA
ATOM      5  N   UNL     1       3.556   0.949   0.111  0.00  0.00    -0.315 N 
ATOM     21  C   UNL     1       3.817  -0.229  -0.592  0.00  0.00    +0.214 C 
ATOM     31  H   UNL     1       3.536   0.908   1.126  0.00  0.00    +0.149 HD
BRANCH  21  24
ATOM     24  C   UNL     1       3.943  -1.428   0.330  0.00  0.00    +0.107 C 
BRANCH  24  27
ATOM     27  C   UNL     1       4.228  -2.720  -0.428  0.00  0.00    +0.129 C 
BRANCH  27  30
ATOM      4  O   UNL     1       4.246  -3.867   1.718  0.00  0.00    -0.251 OA
ATOM     30  C   UNL     1       4.343  -3.907   0.499  0.00  0.00    +0.305 C 
BRANCH  30   3
ATOM      3  O   UNL     1       4.572  -5.056  -0.190  0.00  0.00    -0.481 OA
ATOM     33  H   UNL     1       4.647  -5.831   0.407  0.00  0.00    +0.295 HD
ENDBRANCH  30   3
ENDBRANCH  27  30
ENDBRANCH  24  27
ENDBRANCH  21  24
ENDBRANCH  15   5
ENDBRANCH   9  15
BRANCH  11  16
ATOM     16  C   UNL     1      -0.599   0.509   1.609  0.00  0.00    +0.082 C 
BRANCH  16  20
ATOM      1  F   UNL     1      -7.306  -1.584  -0.201  0.00  0.00    -0.205 F 
ATOM      6  N   UNL     1      -3.069   0.126   1.503  0.00  0.00    -0.342 N 
ATOM      7  N   UNL     1      -1.868  -0.834  -0.103  0.00  0.00    -0.232 NA
ATOM     20  C   UNL     1      -1.825  -0.083   0.975  0.00  0.00    +0.109 A 
ATOM     22  C   UNL     1      -3.975  -0.534   0.713  0.00  0.00    +0.069 A 
ATOM     23  C   UNL     1      -3.201  -1.125  -0.282  0.00  0.00    +0.089 A 
ATOM     25  C   UNL     1      -5.362  -0.661   0.781  0.00  0.00    +0.066 A 
ATOM     26  C   UNL     1      -3.832  -1.892  -1.276  0.00  0.00    +0.032 A 
ATOM     28  C   UNL     1      -5.974  -1.427  -0.217  0.00  0.00    +0.125 A 
ATOM     29  C   UNL     1      -5.224  -2.033  -1.228  0.00  0.00    +0.040 A 
ATOM     32  H   UNL     1      -3.284   0.670   2.328  0.00  0.00    +0.167 HD
ENDBRANCH  16  20
ENDBRANCH  11  16
TORSDOF 9
