REMARK  Name = 28961885
REMARK  9 active torsions:
REMARK  status: ('A' for Active; 'I' for Inactive)
REMARK    1  A    between atoms: O_4  and  C_11
REMARK    2  A    between atoms: O_5  and  C_18
REMARK    3  A    between atoms: N_6  and  C_9
REMARK    4  A    between atoms: N_7  and  C_19
REMARK    5  A    between atoms: N_8  and  C_15
REMARK    6  A    between atoms: N_8  and  C_20
REMARK    7  A    between atoms: C_10  and  C_15
REMARK    8  A    between atoms: C_12  and  C_18
REMARK    9  A    between atoms: C_20  and  C_23
REMARK                            x       y       z     vdW  Elec       q    Type
REMARK                         _______ _______ _______ _____ _____    ______ ____
ROOT
ATOM      3  O   UNL     1       2.109   2.548   0.782  0.00  0.00    -0.366 OA
ATOM      9  C   UNL     1      -0.236   2.144   0.697  0.00  0.00    +0.118 C 
ATOM     10  C   UNL     1       1.137   1.483   0.883  0.00  0.00    +0.152 C 
ATOM     11  C   UNL     1       0.088   3.380  -0.127  0.00  0.00    +0.165 C 
ATOM     12  C   UNL     1       1.427   3.780   0.480  0.00  0.00    +0.174 C 
ENDROOT
BRANCH   9   6
ATOM      6  N   UNL     1      -1.287   1.298   0.160  0.00  0.00    -0.292 NA
ATOM      7  N   UNL     1      -3.815  -0.032   0.153  0.00  0.00    -0.327 N 
ATOM     13  C   UNL     1      -1.523   0.147   1.040  0.00  0.00    +0.104 C 
ATOM     14  C   UNL     1      -2.529   2.063  -0.005  0.00  0.00    +0.104 C 
ATOM     16  C   UNL     1      -2.590  -0.782   0.456  0.00  0.00    +0.120 C 
ATOM     17  C   UNL     1      -3.630   1.198  -0.623  0.00  0.00    +0.120 C 
BRANCH   7  19
ATOM      1  F   UNL     1      -8.550  -2.854  -0.267  0.00  0.00    -0.205 F 
ATOM     19  C   UNL     1      -5.014  -0.747   0.046  0.00  0.00    +0.030 A 
ATOM     21  C   UNL     1      -5.486  -1.482   1.133  0.00  0.00    +0.026 A 
ATOM     22  C   UNL     1      -5.736  -0.723  -1.147  0.00  0.00    +0.026 A 
ATOM     24  C   UNL     1      -6.681  -2.194   1.028  0.00  0.00    +0.040 A 
ATOM     25  C   UNL     1      -6.931  -1.435  -1.252  0.00  0.00    +0.040 A 
ATOM     26  C   UNL     1      -7.403  -2.171  -0.165  0.00  0.00    +0.124 A 
ENDBRANCH   7  19
ENDBRANCH   9   6
BRANCH  11   4
ATOM      4  O   UNL     1       0.243   3.062  -1.504  0.00  0.00    -0.388 OA
ATOM     32  H   UNL     1       0.341   3.898  -1.990  0.00  0.00    +0.210 HD
ENDBRANCH  11   4
BRANCH  10  15
ATOM     15  C   UNL     1       1.526   0.417  -0.135  0.00  0.00    +0.114 C 
BRANCH  15   8
ATOM      8  N   UNL     1       2.835  -0.142   0.171  0.00  0.00    -0.310 NA
ATOM     33  H   UNL     1       3.530   0.604   0.165  0.00  0.00    +0.122 HD
BRANCH   8  20
ATOM     20  C   UNL     1       3.202  -1.168  -0.796  0.00  0.00    +0.116 C 
BRANCH  20  23
ATOM      2  F   UNL     1       8.242  -3.416   0.345  0.00  0.00    -0.205 F 
ATOM     23  C   UNL     1       4.549  -1.769  -0.491  0.00  0.00    -0.033 A 
ATOM     27  C   UNL     1       5.702  -1.208  -1.039  0.00  0.00    +0.008 A 
ATOM     28  C   UNL     1       4.643  -2.886   0.340  0.00  0.00    +0.008 A 
ATOM     29  C   UNL     1       6.950  -1.764  -0.756  0.00  0.00    +0.038 A 
ATOM     30  C   UNL     1       5.890  -3.442   0.622  0.00  0.00    +0.038 A 
ATOM     31  C   UNL     1       7.044  -2.882   0.074  0.00  0.00    +0.123 A 
ENDBRANCH  20  23
ENDBRANCH   8  20
ENDBRANCH  15   8
ENDBRANCH  10  15
BRANCH  12  18
ATOM     18  C   UNL     1       2.314   4.640  -0.403  0.00  0.00    +0.190 C 
BRANCH  18   5
ATOM      5  O   UNL     1       3.510   4.937   0.299  0.00  0.00    -0.392 OA
ATOM     34  H   UNL     1       4.056   5.489  -0.286  0.00  0.00    +0.210 HD
ENDBRANCH  18   5
ENDBRANCH  12  18
TORSDOF 9
