REMARK  Name = 75536044
REMARK  8 active torsions:
REMARK  status: ('A' for Active; 'I' for Inactive)
REMARK    1  A    between atoms: O_3  and  C_11
REMARK    2  A    between atoms: O_4  and  C_18
REMARK    3  A    between atoms: N_6  and  C_9
REMARK    4  A    between atoms: N_7  and  C_19
REMARK    5  A    between atoms: N_8  and  C_15
REMARK    6  A    between atoms: C_10  and  C_15
REMARK    7  A    between atoms: C_12  and  C_18
REMARK    8  A    between atoms: C_20  and  C_25
REMARK                            x       y       z     vdW  Elec       q    Type
REMARK                         _______ _______ _______ _____ _____    ______ ____
ROOT
ATOM      2  O   UNL     1      -2.438  -2.001   0.575  0.00  0.00    -0.365 OA
ATOM      9  C   UNL     1      -0.074  -1.741   0.677  0.00  0.00    +0.118 C 
ATOM     10  C   UNL     1      -1.407  -0.989   0.576  0.00  0.00    +0.155 C 
ATOM     11  C   UNL     1      -0.402  -3.100   0.076  0.00  0.00    +0.165 C 
ATOM     12  C   UNL     1      -1.820  -3.302   0.596  0.00  0.00    +0.174 C 
ENDROOT
BRANCH   9   6
ATOM      6  N   UNL     1       1.084  -1.075   0.107  0.00  0.00    -0.292 NA
ATOM      7  N   UNL     1       3.688   0.098   0.124  0.00  0.00    -0.327 N 
ATOM     13  C   UNL     1       1.312   0.216   0.767  0.00  0.00    +0.104 C 
ATOM     14  C   UNL     1       2.278  -1.919   0.234  0.00  0.00    +0.104 C 
ATOM     16  C   UNL     1       2.495   0.954   0.137  0.00  0.00    +0.120 C 
ATOM     17  C   UNL     1       3.494  -1.252  -0.413  0.00  0.00    +0.120 C 
BRANCH   7  19
ATOM     19  C   UNL     1       4.939   0.715   0.016  0.00  0.00    +0.030 A 
ATOM     21  C   UNL     1       5.353   1.629   0.985  0.00  0.00    +0.023 A 
ATOM     22  C   UNL     1       5.773   0.417  -1.062  0.00  0.00    +0.023 A 
ATOM     23  C   UNL     1       6.600   2.244   0.877  0.00  0.00    +0.002 A 
ATOM     24  C   UNL     1       7.020   1.032  -1.170  0.00  0.00    +0.002 A 
ATOM     26  C   UNL     1       7.434   1.946  -0.201  0.00  0.00    +0.000 A 
ENDBRANCH   7  19
ENDBRANCH   9   6
BRANCH  11   3
ATOM      3  O   UNL     1      -0.396  -3.057  -1.345  0.00  0.00    -0.388 OA
ATOM     30  H   UNL     1      -0.504  -3.967  -1.667  0.00  0.00    +0.210 HD
ENDBRANCH  11   3
BRANCH  10  15
ATOM     15  C   UNL     1      -1.616  -0.130  -0.666  0.00  0.00    +0.137 C 
BRANCH  15   8
ATOM      5  O   UNL     1      -2.219   2.443   0.457  0.00  0.00    -0.270 OA
ATOM      8  N   UNL     1      -2.895   0.513  -0.640  0.00  0.00    -0.308 N 
ATOM     20  C   UNL     1      -3.099   1.769  -0.072  0.00  0.00    +0.251 C 
ATOM     31  H   UNL     1      -3.686   0.019  -1.042  0.00  0.00    +0.149 HD
BRANCH  20  25
ATOM      1  S   UNL     1      -5.721   1.331  -0.813  0.00  0.00    -0.092 S 
ATOM     25  C   UNL     1      -4.491   2.287  -0.101  0.00  0.00    +0.074 A 
ATOM     27  C   UNL     1      -4.978   3.482   0.380  0.00  0.00    +0.021 A 
ATOM     28  C   UNL     1      -6.380   3.615   0.162  0.00  0.00    +0.008 A 
ATOM     29  C   UNL     1      -6.910   2.516  -0.478  0.00  0.00    +0.046 A 
ENDBRANCH  20  25
ENDBRANCH  15   8
ENDBRANCH  10  15
BRANCH  12  18
ATOM     18  C   UNL     1      -2.674  -4.275  -0.197  0.00  0.00    +0.190 C 
BRANCH  18   4
ATOM      4  O   UNL     1      -3.952  -4.365   0.411  0.00  0.00    -0.392 OA
ATOM     32  H   UNL     1      -4.475  -4.995  -0.113  0.00  0.00    +0.210 HD
ENDBRANCH  18   4
ENDBRANCH  12  18
TORSDOF 8
