REMARK  Name = 56774637
REMARK  8 active torsions:
REMARK  status: ('A' for Active; 'I' for Inactive)
REMARK    1  A    between atoms: S_1  and  N_8
REMARK    2  A    between atoms: S_1  and  C_27
REMARK    3  A    between atoms: O_3  and  C_17
REMARK    4  A    between atoms: N_7  and  C_12
REMARK    5  A    between atoms: N_8  and  C_26
REMARK    6  A    between atoms: C_9  and  C_12
REMARK    7  A    between atoms: C_16  and  C_17
REMARK    8  A    between atoms: C_17  and  C_21
REMARK                            x       y       z     vdW  Elec       q    Type
REMARK                         _______ _______ _______ _____ _____    ______ ____
ROOT
ATOM     17  C   UNL     1       0.009   0.802  -1.171  0.00  0.00    +0.167 C 
ENDROOT
BRANCH  17  16
ATOM      2  O   UNL     1      -0.394   2.349   1.289  0.00  0.00    -0.369 OA
ATOM      4  O   UNL     1      -3.784   2.524   0.058  0.00  0.00    -0.273 OA
ATOM      7  N   UNL     1      -2.236   0.799  -0.147  0.00  0.00    -0.291 N 
ATOM     16  C   UNL     1      -0.842   0.370   0.027  0.00  0.00    +0.135 C 
ATOM     18  C   UNL     1      -0.283   0.932   1.328  0.00  0.00    +0.185 C 
ATOM     19  C   UNL     1      -2.684   2.033   0.319  0.00  0.00    +0.242 C 
ATOM     20  C   UNL     1      -1.745   2.751   1.282  0.00  0.00    +0.255 C 
BRANCH   7  12
ATOM     12  C   UNL     1      -3.094  -0.027  -0.986  0.00  0.00    +0.112 C 
BRANCH  12   9
ATOM      9  C   UNL     1      -4.377  -0.407  -0.248  0.00  0.00    +0.006 C 
ATOM     10  C   UNL     1      -5.277  -1.273  -1.140  0.00  0.00    +0.005 C 
ATOM     11  C   UNL     1      -4.052  -1.129   1.066  0.00  0.00    +0.005 C 
ATOM     13  C   UNL     1      -6.543  -1.711  -0.406  0.00  0.00    +0.000 C 
ATOM     14  C   UNL     1      -5.319  -1.568   1.796  0.00  0.00    +0.000 C 
ATOM     15  C   UNL     1      -6.216  -2.421   0.905  0.00  0.00    +0.000 C 
ENDBRANCH  12   9
ENDBRANCH   7  12
ENDBRANCH  17  16
BRANCH  17  21
ATOM     21  C   UNL     1       1.437   0.339  -1.039  0.00  0.00    -0.017 A 
ATOM     22  C   UNL     1       2.475   1.271  -1.040  0.00  0.00    +0.008 A 
ATOM     23  C   UNL     1       1.721  -1.021  -0.917  0.00  0.00    +0.008 A 
ATOM     24  C   UNL     1       3.797   0.842  -0.919  0.00  0.00    +0.025 A 
ATOM     25  C   UNL     1       3.043  -1.450  -0.797  0.00  0.00    +0.025 A 
ATOM     26  C   UNL     1       4.081  -0.518  -0.798  0.00  0.00    +0.048 A 
BRANCH  26   8
ATOM      8  N   UNL     1       5.434  -0.957  -0.674  0.00  0.00    -0.221 N 
ATOM     29  H   UNL     1       5.608  -1.890  -1.072  0.00  0.00    +0.173 HD
BRANCH   8   1
ATOM      1  S   UNL     1       6.267  -0.623   0.795  0.00  0.00    +0.040 S 
ATOM      5  O   UNL     1       7.675  -0.919   0.602  0.00  0.00    -0.155 OA
ATOM      6  O   UNL     1       5.851   0.651   1.349  0.00  0.00    -0.155 OA
ATOM     27  C   UNL     1       5.607  -1.910   1.830  0.00  0.00    +0.218 C 
ENDBRANCH   8   1
ENDBRANCH  26   8
ENDBRANCH  17  21
BRANCH  17   3
ATOM      3  O   UNL     1      -0.555   0.271  -2.365  0.00  0.00    -0.385 OA
ATOM     28  H   UNL     1       0.089   0.387  -3.085  0.00  0.00    +0.210 HD
ENDBRANCH  17   3
TORSDOF 7
