REMARK  Name = 51136971
REMARK  10 active torsions:
REMARK  status: ('A' for Active; 'I' for Inactive)
REMARK    1  A    between atoms: O_3  and  C_12
REMARK    2  A    between atoms: O_4  and  C_19
REMARK    3  A    between atoms: O_6  and  C_30
REMARK    4  A    between atoms: O_6  and  C_33
REMARK    5  A    between atoms: N_7  and  C_10
REMARK    6  A    between atoms: N_8  and  C_20
REMARK    7  A    between atoms: N_9  and  C_16
REMARK    8  A    between atoms: C_11  and  C_16
REMARK    9  A    between atoms: C_13  and  C_19
REMARK   10  A    between atoms: C_21  and  C_24
REMARK                            x       y       z     vdW  Elec       q    Type
REMARK                         _______ _______ _______ _____ _____    ______ ____
ROOT
ATOM      2  O   UNL     1      -1.235  -2.178   0.671  0.00  0.00    -0.365 OA
ATOM     10  C   UNL     1       1.113  -1.789   0.635  0.00  0.00    +0.118 C 
ATOM     11  C   UNL     1      -0.259  -1.120   0.789  0.00  0.00    +0.155 C 
ATOM     12  C   UNL     1       0.799  -3.027  -0.192  0.00  0.00    +0.165 C 
ATOM     13  C   UNL     1      -0.555  -3.417   0.389  0.00  0.00    +0.174 C 
ENDROOT
BRANCH  10   7
ATOM      7  N   UNL     1       2.181  -0.953   0.117  0.00  0.00    -0.292 NA
ATOM      8  N   UNL     1       4.717   0.361   0.158  0.00  0.00    -0.327 N 
ATOM     14  C   UNL     1       3.421  -1.726  -0.019  0.00  0.00    +0.104 C 
ATOM     15  C   UNL     1       2.405   0.200   0.998  0.00  0.00    +0.104 C 
ATOM     17  C   UNL     1       4.541  -0.871  -0.617  0.00  0.00    +0.120 C 
ATOM     18  C   UNL     1       3.490   1.120   0.433  0.00  0.00    +0.120 C 
BRANCH   8  20
ATOM     20  C   UNL     1       5.922   1.068   0.074  0.00  0.00    +0.030 A 
ATOM     22  C   UNL     1       6.377   1.804   1.167  0.00  0.00    +0.023 A 
ATOM     23  C   UNL     1       6.668   1.036  -1.104  0.00  0.00    +0.023 A 
ATOM     25  C   UNL     1       7.578   2.509   1.083  0.00  0.00    +0.002 A 
ATOM     26  C   UNL     1       7.869   1.740  -1.188  0.00  0.00    +0.002 A 
ATOM     27  C   UNL     1       8.324   2.477  -0.095  0.00  0.00    +0.000 A 
ENDBRANCH   8  20
ENDBRANCH  10   7
BRANCH  12   3
ATOM      3  O   UNL     1       0.675  -2.713  -1.573  0.00  0.00    -0.388 OA
ATOM     34  H   UNL     1       0.582  -3.550  -2.058  0.00  0.00    +0.210 HD
ENDBRANCH  12   3
BRANCH  11  16
ATOM     16  C   UNL     1      -0.620  -0.055  -0.240  0.00  0.00    +0.137 C 
BRANCH  16   9
ATOM      5  O   UNL     1      -3.112  -1.025  -1.284  0.00  0.00    -0.270 OA
ATOM      9  N   UNL     1      -1.921   0.486   0.013  0.00  0.00    -0.309 N 
ATOM     21  C   UNL     1      -3.083  -0.050  -0.538  0.00  0.00    +0.246 C 
ATOM     35  H   UNL     1      -1.990   1.292   0.628  0.00  0.00    +0.149 HD
BRANCH  21  24
ATOM      1 CL   UNL     1      -5.289  -1.678   0.885  0.00  0.00    -0.083 Cl
ATOM     24  C   UNL     1      -4.352   0.644  -0.199  0.00  0.00    +0.058 A 
ATOM     28  C   UNL     1      -4.477   1.990  -0.542  0.00  0.00    +0.060 A 
ATOM     29  C   UNL     1      -5.402  -0.013   0.443  0.00  0.00    +0.053 A 
ATOM     30  C   UNL     1      -5.652   2.680  -0.243  0.00  0.00    +0.121 A 
ATOM     31  C   UNL     1      -6.577   0.677   0.742  0.00  0.00    +0.024 A 
ATOM     32  C   UNL     1      -6.702   2.024   0.399  0.00  0.00    +0.047 A 
BRANCH  30   6
ATOM      6  O   UNL     1      -5.774   3.994  -0.577  0.00  0.00    -0.495 OA
ATOM     33  C   UNL     1      -7.002   4.637  -0.242  0.00  0.00    +0.277 C 
ENDBRANCH  30   6
ENDBRANCH  21  24
ENDBRANCH  16   9
ENDBRANCH  11  16
BRANCH  13  19
ATOM     19  C   UNL     1      -1.429  -4.274  -0.509  0.00  0.00    +0.190 C 
BRANCH  19   4
ATOM      4  O   UNL     1      -2.641  -4.561   0.168  0.00  0.00    -0.392 OA
ATOM     36  H   UNL     1      -3.179  -5.111  -0.427  0.00  0.00    +0.210 HD
ENDBRANCH  19   4
ENDBRANCH  13  19
TORSDOF 9
