REMARK  Name = 26743622
REMARK  8 active torsions:
REMARK  status: ('A' for Active; 'I' for Inactive)
REMARK    1  A    between atoms: O_4  and  C_13
REMARK    2  A    between atoms: O_7  and  C_23
REMARK    3  A    between atoms: N_8  and  C_15
REMARK    4  A    between atoms: C_11  and  C_16
REMARK    5  A    between atoms: C_15  and  C_17
REMARK    6  A    between atoms: C_19  and  C_22
REMARK    7  A    between atoms: C_20  and  C_23
REMARK    8  A    between atoms: C_28  and  C_29
REMARK                            x       y       z     vdW  Elec       q    Type
REMARK                         _______ _______ _______ _____ _____    ______ ____
ROOT
ATOM      8  N   UNL     1      -3.699   0.336   0.524  0.00  0.00    -0.282 NA
ATOM     11  C   UNL     1      -3.227   1.168  -0.602  0.00  0.00    +0.149 C 
ATOM     12  C   UNL     1      -3.483   2.619  -0.153  0.00  0.00    +0.061 C 
ATOM     13  C   UNL     1      -4.142   2.498   1.215  0.00  0.00    +0.130 C 
ATOM     14  C   UNL     1      -4.743   1.105   1.198  0.00  0.00    +0.117 C 
ENDROOT
BRANCH  11  16
ATOM      5  O   UNL     1      -1.518   0.524  -2.226  0.00  0.00    -0.336 OA
ATOM      9  N   UNL     1      -0.712   1.003  -0.192  0.00  0.00    -0.190 NA
ATOM     10  N   UNL     1      -0.131   0.348  -2.305  0.00  0.00    -0.056 NA
ATOM     16  C   UNL     1      -1.776   0.911  -0.949  0.00  0.00    +0.245 A 
ATOM     19  C   UNL     1       0.273   0.649  -1.068  0.00  0.00    +0.202 A 
BRANCH  19  22
ATOM     22  C   UNL     1       1.651   0.607  -0.674  0.00  0.00    +0.022 A 
ATOM     24  C   UNL     1       2.014   0.933   0.633  0.00  0.00    +0.012 A 
ATOM     25  C   UNL     1       2.629   0.238  -1.598  0.00  0.00    +0.012 A 
ATOM     26  C   UNL     1       3.354   0.892   1.016  0.00  0.00    +0.013 A 
ATOM     27  C   UNL     1       3.970   0.197  -1.215  0.00  0.00    +0.013 A 
ATOM     28  C   UNL     1       4.332   0.524   0.092  0.00  0.00    +0.055 A 
BRANCH  28  29
ATOM      1  F   UNL     1       6.336  -0.755   0.366  0.00  0.00    -0.166 F 
ATOM      2  F   UNL     1       5.949   0.826   1.808  0.00  0.00    -0.166 F 
ATOM      3  F   UNL     1       6.566   1.322  -0.217  0.00  0.00    -0.166 F 
ATOM     29  C   UNL     1       5.766   0.479   0.501  0.00  0.00    +0.417 C 
ENDBRANCH  28  29
ENDBRANCH  19  22
ENDBRANCH  11  16
BRANCH  13   4
ATOM      4  O   UNL     1      -5.132   3.494   1.386  0.00  0.00    -0.390 OA
ATOM     30  H   UNL     1      -4.692   4.359   1.311  0.00  0.00    +0.210 HD
ENDBRANCH  13   4
BRANCH   8  15
ATOM     15  C   UNL     1      -4.169  -0.979   0.108  0.00  0.00    +0.159 C 
BRANCH  15  17
ATOM      6  O   UNL     1      -2.200  -2.157   0.919  0.00  0.00    -0.461 OA
ATOM     17  C   UNL     1      -3.028  -1.931  -0.134  0.00  0.00    +0.119 A 
ATOM     18  C   UNL     1      -2.623  -2.654  -1.232  0.00  0.00    +0.046 A 
ATOM     20  C   UNL     1      -1.254  -3.033   0.489  0.00  0.00    +0.131 A 
ATOM     21  C   UNL     1      -1.470  -3.370  -0.827  0.00  0.00    +0.047 A 
BRANCH  20  23
ATOM     23  C   UNL     1      -0.237  -3.427   1.474  0.00  0.00    +0.230 C 
BRANCH  23   7
ATOM      7  O   UNL     1       0.704  -2.367   1.664  0.00  0.00    -0.387 OA
ATOM     31  H   UNL     1       1.352  -2.678   2.319  0.00  0.00    +0.210 HD
ENDBRANCH  23   7
ENDBRANCH  20  23
ENDBRANCH  15  17
ENDBRANCH   8  15
TORSDOF 8
