REMARK  Name = 75367708
REMARK  2 active torsions:
REMARK  status: ('A' for Active; 'I' for Inactive)
REMARK    1  A    between atoms: O_3  and  C_10
REMARK    2  A    between atoms: O_3  and  C_19
REMARK                            x       y       z     vdW  Elec       q    Type
REMARK                         _______ _______ _______ _____ _____    ______ ____
ROOT
ATOM      1  O   UNL     1       0.548  -3.114   0.666  0.00  0.00    -0.375 OA
ATOM      2  O   UNL     1      -5.435   1.110   0.618  0.00  0.00    -0.377 OA
ATOM      4  O   UNL     1      -0.789   1.356  -1.143  0.00  0.00    -0.252 OA
ATOM      5  N   UNL     1      -1.014  -0.895  -0.660  0.00  0.00    -0.280 N 
ATOM      6  N   UNL     1      -2.819   0.644  -0.326  0.00  0.00    -0.281 N 
ATOM      9  C   UNL     1       0.149  -1.270  -1.476  0.00  0.00    +0.156 C 
ATOM     10  C   UNL     1       1.480  -1.254  -0.720  0.00  0.00    +0.218 C 
ATOM     11  C   UNL     1      -1.482  -1.874   0.332  0.00  0.00    +0.137 C 
ATOM     12  C   UNL     1      -1.496   0.426  -0.736  0.00  0.00    +0.305 C 
ATOM     13  C   UNL     1       1.720  -2.443   0.217  0.00  0.00    +0.206 C 
ATOM     14  C   UNL     1      -3.184   1.938   0.247  0.00  0.00    +0.137 C 
ATOM     15  C   UNL     1      -3.961  -0.101  -0.871  0.00  0.00    +0.137 C 
ATOM     16  C   UNL     1      -0.395  -2.277   1.320  0.00  0.00    +0.179 C 
ATOM     17  C   UNL     1      -4.327   1.770   1.238  0.00  0.00    +0.179 C 
ATOM     18  C   UNL     1      -5.071  -0.198   0.165  0.00  0.00    +0.179 C 
ENDROOT
BRANCH  10   3
ATOM      3  O   UNL     1       1.603  -0.029   0.002  0.00  0.00    -0.468 OA
BRANCH   3  19
ATOM      7  N   UNL     1       3.902  -0.353   0.093  0.00  0.00    -0.219 NA
ATOM      8  N   UNL     1       4.256   2.423   0.282  0.00  0.00    -0.256 NA
ATOM     19  C   UNL     1       2.859   0.501   0.096  0.00  0.00    +0.234 A 
ATOM     20  C   UNL     1       3.033   1.864   0.189  0.00  0.00    +0.177 A 
ATOM     21  C   UNL     1       5.125   0.206   0.187  0.00  0.00    +0.134 A 
ATOM     22  C   UNL     1       5.299   1.570   0.280  0.00  0.00    +0.130 A 
ENDBRANCH   3  19
ENDBRANCH  10   3
TORSDOF 2
