REMARK  Name = 7134300
REMARK  7 active torsions:
REMARK  status: ('A' for Active; 'I' for Inactive)
REMARK    1  A    between atoms: N_7  and  C_12
REMARK    2  A    between atoms: N_8  and  C_20
REMARK    3  A    between atoms: C_13  and  C_17
REMARK    4  A    between atoms: C_18  and  C_21
REMARK    5  A    between atoms: C_19  and  C_22
REMARK    6  A    between atoms: C_20  and  C_23
REMARK    7  A    between atoms: C_20  and  C_25
REMARK                            x       y       z     vdW  Elec       q    Type
REMARK                         _______ _______ _______ _____ _____    ______ ____
ROOT
ATOM      2  O   UNL     1       3.796   0.225   1.825  0.00  0.00    -0.267 OA
ATOM      6  N   UNL     1       2.098   0.768   0.338  0.00  0.00    -0.283 N 
ATOM     12  C   UNL     1      -0.764   0.787  -0.271  0.00  0.00    +0.077 C 
ATOM     13  C   UNL     1       1.259  -0.343   0.802  0.00  0.00    +0.164 C 
ATOM     14  C   UNL     1      -0.221   0.013   0.932  0.00  0.00    +0.054 C 
ATOM     15  C   UNL     1       0.126   1.995  -0.556  0.00  0.00    +0.041 C 
ATOM     16  C   UNL     1       1.575   1.575  -0.778  0.00  0.00    +0.111 C 
ATOM     18  C   UNL     1       3.391   0.919   0.890  0.00  0.00    +0.283 C 
ENDROOT
BRANCH  18  21
ATOM      3  O   UNL     1       4.572   1.834  -1.006  0.00  0.00    -0.458 OA
ATOM     21  C   UNL     1       4.258   1.940   0.312  0.00  0.00    +0.189 A 
ATOM     24  C   UNL     1       4.854   3.050   0.863  0.00  0.00    +0.054 A 
ATOM     26  C   UNL     1       5.581   3.667  -0.183  0.00  0.00    +0.042 A 
ATOM     27  C   UNL     1       5.378   2.889  -1.299  0.00  0.00    +0.196 A 
ENDBRANCH  18  21
BRANCH  13  17
ATOM      1  O   UNL     1       2.206  -1.356  -1.143  0.00  0.00    -0.274 OA
ATOM      8  N   UNL     1       0.790  -2.617   0.207  0.00  0.00    -0.303 N 
ATOM     17  C   UNL     1       1.488  -1.477  -0.154  0.00  0.00    +0.234 C 
ATOM     32  H   UNL     1       0.253  -2.620   1.069  0.00  0.00    +0.149 HD
BRANCH   8  20
ATOM     20  C   UNL     1       0.823  -3.841  -0.561  0.00  0.00    +0.156 C 
ATOM     23  C   UNL     1      -0.286  -3.864  -1.601  0.00  0.00    +0.038 C 
BRANCH  20  25
ATOM      5  O   UNL     1       0.018  -4.975   1.431  0.00  0.00    -0.274 OA
ATOM     10  N   UNL     1       1.371  -6.132  -0.021  0.00  0.00    -0.328 N 
ATOM     25  C   UNL     1       0.691  -5.010   0.403  0.00  0.00    +0.231 C 
ATOM     33  H   UNL     1       1.355  -6.987   0.524  0.00  0.00    +0.145 HD
ATOM     34  H   UNL     1       1.905  -6.153  -0.884  0.00  0.00    +0.145 HD
ENDBRANCH  20  25
ENDBRANCH   8  20
ENDBRANCH  13  17
BRANCH  12   7
ATOM      4  O   UNL     1      -3.135  -0.706  -0.899  0.00  0.00    -0.268 OA
ATOM      7  N   UNL     1      -2.128   1.199  -0.042  0.00  0.00    -0.307 N 
ATOM     19  C   UNL     1      -3.214   0.405  -0.380  0.00  0.00    +0.264 C 
ATOM     31  H   UNL     1      -2.294   2.089   0.421  0.00  0.00    +0.149 HD
BRANCH  19  22
ATOM      9  N   UNL     1      -4.579   2.213   0.446  0.00  0.00    -0.247 NA
ATOM     11  N   UNL     1      -6.930   0.805  -0.148  0.00  0.00    -0.259 NA
ATOM     22  C   UNL     1      -4.554   0.983  -0.103  0.00  0.00    +0.143 A 
ATOM     28  C   UNL     1      -5.709   0.291  -0.395  0.00  0.00    +0.143 A 
ATOM     29  C   UNL     1      -5.800   2.727   0.693  0.00  0.00    +0.131 A 
ATOM     30  C   UNL     1      -6.955   2.035   0.401  0.00  0.00    +0.130 A 
ENDBRANCH  19  22
ENDBRANCH  12   7
TORSDOF 6
