REMARK  Name = 44716323
REMARK  10 active torsions:
REMARK  status: ('A' for Active; 'I' for Inactive)
REMARK    1  A    between atoms: N_3  and  C_19
REMARK    2  A    between atoms: N_4  and  C_14
REMARK    3  A    between atoms: N_4  and  C_18
REMARK    4  A    between atoms: N_6  and  C_27
REMARK    5  A    between atoms: N_6  and  C_30
REMARK    6  A    between atoms: N_6  and  C_31
REMARK    7  A    between atoms: C_8  and  C_15
REMARK    8  A    between atoms: C_9  and  C_14
REMARK    9  A    between atoms: C_17  and  C_20
REMARK   10  A    between atoms: C_18  and  C_21
REMARK                            x       y       z     vdW  Elec       q    Type
REMARK                         _______ _______ _______ _____ _____    ______ ____
ROOT
ATOM      2  N   UNL     1      -4.626  -0.471   0.569  0.00  0.00    -0.298 NA
ATOM      7  C   UNL     1      -3.216  -1.146  -1.514  0.00  0.00    +0.002 C 
ATOM      8  C   UNL     1      -2.697  -1.879  -0.246  0.00  0.00    +0.055 C 
ATOM      9  C   UNL     1      -4.183   0.746  -0.161  0.00  0.00    +0.071 C 
ATOM     10  C   UNL     1      -3.178   0.378  -1.274  0.00  0.00    +0.024 C 
ATOM     11  C   UNL     1      -4.698  -1.542  -1.683  0.00  0.00    +0.019 C 
ATOM     12  C   UNL     1      -3.448  -1.277   0.976  0.00  0.00    +0.094 C 
ATOM     13  C   UNL     1      -5.444  -1.286  -0.361  0.00  0.00    +0.085 C 
ENDROOT
BRANCH   8  15
ATOM      3  N   UNL     1      -0.587  -2.987   0.624  0.00  0.00    -0.270 N 
ATOM      5  N   UNL     1       0.748  -2.861   0.720  0.00  0.00    -0.171 NA
ATOM     15  C   UNL     1      -1.193  -1.950  -0.022  0.00  0.00    +0.044 A 
ATOM     16  C   UNL     1      -0.186  -1.086  -0.374  0.00  0.00    +0.053 A 
ATOM     17  C   UNL     1       0.987  -1.698   0.108  0.00  0.00    +0.093 A 
ATOM     19  C   UNL     1      -1.227  -4.152   1.190  0.00  0.00    +0.172 C 
BRANCH  17  20
ATOM     20  C   UNL     1       2.330  -1.192  -0.003  0.00  0.00    +0.002 A 
ATOM     22  C   UNL     1       2.688  -0.394  -1.090  0.00  0.00    +0.012 A 
ATOM     23  C   UNL     1       3.274  -1.499   0.977  0.00  0.00    +0.012 A 
ATOM     25  C   UNL     1       3.989   0.097  -1.197  0.00  0.00    +0.024 A 
ATOM     26  C   UNL     1       4.575  -1.008   0.870  0.00  0.00    +0.024 A 
ATOM     27  C   UNL     1       4.933  -0.211  -0.217  0.00  0.00    +0.029 A 
BRANCH  27   6
ATOM      6  N   UNL     1       6.248   0.286  -0.326  0.00  0.00    -0.336 N 
ATOM     30  C   UNL     1       7.235  -0.021   0.691  0.00  0.00    +0.129 C 
ATOM     31  C   UNL     1       6.629   1.116  -1.451  0.00  0.00    +0.129 C 
ENDBRANCH  27   6
ENDBRANCH  17  20
ENDBRANCH   8  15
BRANCH   9  14
ATOM     14  C   UNL     1      -3.625   1.818   0.778  0.00  0.00    +0.100 C 
BRANCH  14   4
ATOM      4  N   UNL     1      -3.339   3.043   0.051  0.00  0.00    -0.308 NA
ATOM     32  H   UNL     1      -4.210   3.554  -0.096  0.00  0.00    +0.122 HD
BRANCH   4  18
ATOM     18  C   UNL     1      -2.394   3.878   0.782  0.00  0.00    +0.155 C 
BRANCH  18  21
ATOM      1  O   UNL     1      -0.507   3.350  -0.662  0.00  0.00    -0.467 OA
ATOM     21  C   UNL     1      -0.977   3.401   0.612  0.00  0.00    +0.119 A 
ATOM     24  C   UNL     1      -0.010   2.987   1.500  0.00  0.00    +0.046 A 
ATOM     28  C   UNL     1       1.126   2.662   0.721  0.00  0.00    +0.041 A 
ATOM     29  C   UNL     1       0.773   2.900  -0.587  0.00  0.00    +0.195 A 
ENDBRANCH  18  21
ENDBRANCH   4  18
ENDBRANCH  14   4
ENDBRANCH   9  14
TORSDOF 7
