REMARK  Name = 45783706
REMARK  7 active torsions:
REMARK  status: ('A' for Active; 'I' for Inactive)
REMARK    1  A    between atoms: O_2  and  C_25
REMARK    2  A    between atoms: O_2  and  C_26
REMARK    3  A    between atoms: N_3  and  C_11
REMARK    4  A    between atoms: C_7  and  C_12
REMARK    5  A    between atoms: C_11  and  C_13
REMARK    6  A    between atoms: C_16  and  C_20
REMARK    7  A    between atoms: C_19  and  C_21
REMARK                            x       y       z     vdW  Elec       q    Type
REMARK                         _______ _______ _______ _____ _____    ______ ____
ROOT
ATOM      3  N   UNL     1      -3.457  -0.401  -0.688  0.00  0.00    -0.287 NA
ATOM      7  C   UNL     1      -3.057  -1.287   0.423  0.00  0.00    +0.146 C 
ATOM      8  C   UNL     1      -3.560  -2.683   0.011  0.00  0.00    +0.030 C 
ATOM      9  C   UNL     1      -4.281  -2.471  -1.313  0.00  0.00    +0.017 C 
ATOM     10  C   UNL     1      -4.649  -1.002  -1.287  0.00  0.00    +0.085 C 
ENDROOT
BRANCH   7  12
ATOM      1  O   UNL     1      -1.168  -1.534   1.953  0.00  0.00    -0.336 OA
ATOM      4  N   UNL     1      -0.584  -0.996  -0.141  0.00  0.00    -0.190 NA
ATOM      5  N   UNL     1       0.230  -1.445   1.950  0.00  0.00    -0.056 NA
ATOM     12  C   UNL     1      -1.566  -1.256   0.684  0.00  0.00    +0.245 A 
ATOM     16  C   UNL     1       0.498  -1.124   0.680  0.00  0.00    +0.204 A 
BRANCH  16  20
ATOM      6  N   UNL     1       4.209  -0.883   0.658  0.00  0.00    -0.221 NA
ATOM     20  C   UNL     1       1.836  -0.926   0.201  0.00  0.00    +0.041 A 
ATOM     22  C   UNL     1       2.078  -0.594  -1.127  0.00  0.00    +0.018 A 
ATOM     23  C   UNL     1       2.926  -1.058   1.046  0.00  0.00    +0.126 A 
ATOM     24  C   UNL     1       3.385  -0.406  -1.564  0.00  0.00    +0.068 A 
ATOM     25  C   UNL     1       4.406  -0.561  -0.640  0.00  0.00    +0.214 A 
BRANCH  25   2
ATOM      2  O   UNL     1       5.702  -0.382  -1.046  0.00  0.00    -0.480 OA
ATOM     26  C   UNL     1       6.712  -0.553  -0.058  0.00  0.00    +0.279 C 
ENDBRANCH  25   2
ENDBRANCH  16  20
ENDBRANCH   7  12
BRANCH   3  11
ATOM     11  C   UNL     1      -3.688   0.976  -0.270  0.00  0.00    +0.120 C 
BRANCH  11  13
ATOM     13  C   UNL     1      -2.399   1.738  -0.113  0.00  0.00    -0.033 A 
ATOM     14  C   UNL     1      -2.074   2.311   1.116  0.00  0.00    +0.005 A 
ATOM     15  C   UNL     1      -1.531   1.872  -1.197  0.00  0.00    +0.005 A 
ATOM     17  C   UNL     1      -0.881   3.019   1.262  0.00  0.00    +0.003 A 
ATOM     18  C   UNL     1      -0.338   2.580  -1.051  0.00  0.00    +0.003 A 
ATOM     19  C   UNL     1      -0.013   3.154   0.178  0.00  0.00    -0.050 A 
ATOM     21  C   UNL     1       1.262   3.912   0.334  0.00  0.00    +0.044 C 
ENDBRANCH  11  13
ENDBRANCH   3  11
TORSDOF 5
