REMARK  Name = 51137966
REMARK  5 active torsions:
REMARK  status: ('A' for Active; 'I' for Inactive)
REMARK    1  A    between atoms: C_6  and  C_10
REMARK    2  A    between atoms: C_7  and  C_14
REMARK    3  A    between atoms: C_10  and  C_13
REMARK    4  A    between atoms: C_13  and  C_21
REMARK    5  A    between atoms: C_13  and  C_22
REMARK                            x       y       z     vdW  Elec       q    Type
REMARK                         _______ _______ _______ _____ _____    ______ ____
ROOT
ATOM      3  N   UNL     1       0.073   0.984   0.717  0.00  0.00    -0.299 NA
ATOM      5  N   UNL     1       3.067  -3.078   0.517  0.00  0.00    -0.360 N 
ATOM      6  C   UNL     1       1.101   1.296  -0.285  0.00  0.00    +0.085 C 
ATOM      7  C   UNL     1      -0.682  -0.233   0.456  0.00  0.00    +0.145 C 
ATOM      8  C   UNL     1       2.248   0.287  -0.403  0.00  0.00    -0.021 A 
ATOM      9  C   UNL     1      -0.121  -1.420   1.236  0.00  0.00    +0.065 C 
ATOM     11  C   UNL     1       2.227  -1.043   0.107  0.00  0.00    +0.008 A 
ATOM     12  C   UNL     1       1.251  -1.828   0.813  0.00  0.00    -0.020 A 
ATOM     15  C   UNL     1       3.340  -1.871  -0.080  0.00  0.00    +0.047 A 
ATOM     16  C   UNL     1       1.812  -3.066   1.052  0.00  0.00    +0.087 A 
ATOM     17  C   UNL     1       3.402   0.656  -1.140  0.00  0.00    +0.006 A 
ATOM     20  C   UNL     1       4.487  -1.473  -0.769  0.00  0.00    +0.026 A 
ATOM     23  C   UNL     1       4.494  -0.193  -1.310  0.00  0.00    +0.002 A 
ATOM     26  H   UNL     1       0.470   0.976   1.656  0.00  0.00    +0.123 HD
ATOM     27  H   UNL     1       3.699  -3.867   0.540  0.00  0.00    +0.165 HD
ENDROOT
BRANCH   7  14
ATOM      1  O   UNL     1      -5.233  -1.226  -1.475  0.00  0.00    -0.377 OA
ATOM      2  O   UNL     1      -2.237   0.834   1.878  0.00  0.00    -0.274 OA
ATOM      4  N   UNL     1      -3.108  -0.587   0.261  0.00  0.00    -0.296 N 
ATOM     14  C   UNL     1      -2.072   0.056   0.935  0.00  0.00    +0.233 C 
ATOM     18  C   UNL     1      -2.942  -1.611  -0.776  0.00  0.00    +0.136 C 
ATOM     19  C   UNL     1      -4.496  -0.357   0.662  0.00  0.00    +0.136 C 
ATOM     24  C   UNL     1      -3.886  -1.339  -1.941  0.00  0.00    +0.179 C 
ATOM     25  C   UNL     1      -5.371  -0.133  -0.563  0.00  0.00    +0.179 C 
ENDBRANCH   7  14
BRANCH   6  10
ATOM     10  C   UNL     1       1.591   2.707   0.086  0.00  0.00    +0.026 C 
BRANCH  10  13
ATOM     13  C   UNL     1       0.612   3.809  -0.330  0.00  0.00    -0.015 C 
ATOM     21  C   UNL     1       1.207   5.173   0.027  0.00  0.00    +0.007 C 
ATOM     22  C   UNL     1      -0.761   3.656   0.325  0.00  0.00    +0.007 C 
ENDBRANCH  10  13
ENDBRANCH   6  10
TORSDOF 3
