REMARK  Name = 11911750
REMARK  4 active torsions:
REMARK  status: ('A' for Active; 'I' for Inactive)
REMARK    1  A    between atoms: C_16  and  C_19
REMARK    2  A    between atoms: C_17  and  C_20
REMARK    3  A    between atoms: C_23  and  C_27
REMARK    4  A    between atoms: C_26  and  C_30
REMARK                            x       y       z     vdW  Elec       q    Type
REMARK                         _______ _______ _______ _____ _____    ______ ____
ROOT
ATOM      2  O   UNL     1       0.613  -2.909  -1.218  0.00  0.00    -0.267 OA
ATOM      3  O   UNL     1      -3.341   0.087  -2.671  0.00  0.00    -0.270 OA
ATOM      4  N   UNL     1      -3.834  -0.761  -0.547  0.00  0.00    -0.297 N 
ATOM      5  N   UNL     1      -1.197  -2.380   0.153  0.00  0.00    -0.311 N 
ATOM      7  C   UNL     1      -3.570  -3.225  -0.318  0.00  0.00    +0.027 C 
ATOM      8  C   UNL     1      -3.151  -1.765   1.619  0.00  0.00    +0.054 C 
ATOM      9  C   UNL     1      -3.761  -3.098   1.189  0.00  0.00    +0.018 C 
ATOM     10  C   UNL     1      -4.269  -2.064  -1.048  0.00  0.00    +0.113 C 
ATOM     11  C   UNL     1      -2.067  -3.276  -0.622  0.00  0.00    +0.130 C 
ATOM     12  C   UNL     1      -3.889  -0.608   0.916  0.00  0.00    +0.117 C 
ATOM     13  C   UNL     1      -1.673  -1.708   1.281  0.00  0.00    +0.027 A 
ATOM     14  C   UNL     1      -0.833  -0.987   2.040  0.00  0.00    +0.022 A 
ATOM     15  C   UNL     1       0.155  -2.314  -0.240  0.00  0.00    +0.259 A 
ATOM     16  C   UNL     1      -3.389   0.209  -1.448  0.00  0.00    +0.247 C 
ATOM     17  C   UNL     1       1.067  -1.473   0.613  0.00  0.00    +0.040 A 
ATOM     18  C   UNL     1       0.555  -0.870   1.695  0.00  0.00    +0.015 A 
ENDROOT
BRANCH  16  19
ATOM     19  C   UNL     1      -2.916   1.486  -0.905  0.00  0.00    +0.037 A 
ATOM     21  C   UNL     1      -1.572   1.644  -0.575  0.00  0.00    +0.014 A 
ATOM     22  C   UNL     1      -3.813   2.536  -0.723  0.00  0.00    +0.014 A 
ATOM     24  C   UNL     1      -1.122   2.860  -0.060  0.00  0.00    +0.019 A 
ATOM     25  C   UNL     1      -3.363   3.752  -0.207  0.00  0.00    +0.019 A 
ATOM     26  C   UNL     1      -2.018   3.913   0.124  0.00  0.00    +0.052 A 
BRANCH  26  30
ATOM      6  N   UNL     1      -1.182   6.170   1.085  0.00  0.00    -0.191 NA
ATOM     30  C   UNL     1      -1.557   5.158   0.654  0.00  0.00    +0.099 C 
ENDBRANCH  26  30
ENDBRANCH  16  19
BRANCH  17  20
ATOM     20  C   UNL     1       2.459  -1.339   0.264  0.00  0.00    +0.014 C 
ATOM     23  C   UNL     1       3.177  -0.245   0.543  0.00  0.00    +0.008 C 
BRANCH  23  27
ATOM      1 CL   UNL     1       8.928   0.510  -0.851  0.00  0.00    -0.084 Cl
ATOM     27  C   UNL     1       4.597  -0.058   0.198  0.00  0.00    -0.025 A 
ATOM     28  C   UNL     1       5.382  -1.168  -0.072  0.00  0.00    +0.009 A 
ATOM     29  C   UNL     1       5.122   1.223   0.151  0.00  0.00    +0.009 A 
ATOM     31  C   UNL     1       6.727  -0.992  -0.397  0.00  0.00    +0.020 A 
ATOM     32  C   UNL     1       6.466   1.400  -0.175  0.00  0.00    +0.020 A 
ATOM     33  C   UNL     1       7.269   0.292  -0.449  0.00  0.00    +0.041 A 
ENDBRANCH  23  27
ENDBRANCH  17  20
TORSDOF 4
