REMARK  Name = 71693177
REMARK  14 active torsions:
REMARK  status: ('A' for Active; 'I' for Inactive)
REMARK    1  A    between atoms: O_2  and  C_30
REMARK    2  A    between atoms: O_2  and  C_32
REMARK    3  A    between atoms: N_4  and  C_15
REMARK    4  A    between atoms: N_7  and  C_27
REMARK    5  A    between atoms: C_8  and  C_12
REMARK    6  A    between atoms: C_9  and  C_15
REMARK    7  A    between atoms: C_11  and  C_16
REMARK    8  A    between atoms: C_12  and  C_17
REMARK    9  A    between atoms: C_12  and  C_18
REMARK   10  A    between atoms: C_13  and  C_19
REMARK   11  A    between atoms: C_16  and  C_20
REMARK   12  A    between atoms: C_26  and  C_30
REMARK   13  A    between atoms: C_27  and  C_29
REMARK   14  A    between atoms: C_29  and  C_31
REMARK                            x       y       z     vdW  Elec       q    Type
REMARK                         _______ _______ _______ _____ _____    ______ ____
ROOT
ATOM      8  C   UNL     1       2.276   1.317  -1.013  0.00  0.00    +0.000 C 
ATOM      9  C   UNL     1       3.517   2.067  -0.467  0.00  0.00    +0.032 C 
ATOM     10  C   UNL     1       0.984   1.982  -0.514  0.00  0.00    +0.012 C 
ATOM     11  C   UNL     1       0.900   2.010   1.024  0.00  0.00    +0.022 C 
ATOM     13  C   UNL     1       2.194   2.490   1.650  0.00  0.00    -0.073 C 
ATOM     14  C   UNL     1       3.351   2.521   0.964  0.00  0.00    -0.022 C 
ATOM     19  C   UNL     1       2.119   2.976   3.071  0.00  0.00    +0.039 C 
ENDROOT
BRANCH   8  12
ATOM     12  C   UNL     1       2.273   1.262  -2.544  0.00  0.00    -0.013 C 
ATOM     17  C   UNL     1       1.736   2.568  -3.122  0.00  0.00    +0.007 C 
ATOM     18  C   UNL     1       1.448   0.075  -3.032  0.00  0.00    +0.007 C 
ENDBRANCH   8  12
BRANCH   9  15
ATOM     15  C   UNL     1       4.780   1.208  -0.587  0.00  0.00    +0.113 C 
BRANCH  15   4
ATOM      1  O   UNL     1       4.876  -1.558  -1.403  0.00  0.00    -0.253 OA
ATOM      4  N   UNL     1       4.694   0.058   0.257  0.00  0.00    -0.299 N 
ATOM      7  N   UNL     1       4.640  -2.185   0.819  0.00  0.00    -0.299 N 
ATOM     21  C   UNL     1       4.748  -1.260  -0.216  0.00  0.00    +0.300 C 
ATOM     33  H   UNL     1       4.655   0.196   1.262  0.00  0.00    +0.150 HD
ATOM     35  H   UNL     1       4.529  -1.844   1.768  0.00  0.00    +0.150 HD
BRANCH   7  27
ATOM     27  C   UNL     1       4.668  -3.612   0.599  0.00  0.00    +0.105 C 
BRANCH  27  29
ATOM     29  C   UNL     1       3.278  -4.190   0.361  0.00  0.00    +0.015 C 
ATOM     31  C   UNL     1       2.330  -3.940   1.525  0.00  0.00    +0.005 C 
ENDBRANCH  27  29
ENDBRANCH   7  27
ENDBRANCH  15   4
ENDBRANCH   9  15
BRANCH  11  16
ATOM     16  C   UNL     1       0.496   0.640   1.580  0.00  0.00    +0.082 C 
BRANCH  16  20
ATOM      5  N   UNL     1      -1.999   0.688   1.407  0.00  0.00    -0.342 N 
ATOM      6  N   UNL     1      -0.960  -0.742   0.059  0.00  0.00    -0.232 NA
ATOM     20  C   UNL     1      -0.803   0.171   0.992  0.00  0.00    +0.109 A 
ATOM     22  C   UNL     1      -2.993   0.068   0.694  0.00  0.00    +0.067 A 
ATOM     23  C   UNL     1      -2.319  -0.820  -0.140  0.00  0.00    +0.089 A 
ATOM     24  C   UNL     1      -4.382   0.204   0.708  0.00  0.00    +0.042 A 
ATOM     25  C   UNL     1      -3.058  -1.628  -1.019  0.00  0.00    +0.030 A 
ATOM     26  C   UNL     1      -5.102  -0.609  -0.174  0.00  0.00    +0.061 A 
ATOM     28  C   UNL     1      -4.454  -1.509  -1.023  0.00  0.00    +0.017 A 
ATOM     34  H   UNL     1      -2.129   1.401   2.112  0.00  0.00    +0.167 HD
BRANCH  26  30
ATOM      3  O   UNL     1      -7.311  -1.450  -0.490  0.00  0.00    -0.245 OA
ATOM     30  C   UNL     1      -6.553  -0.513  -0.206  0.00  0.00    +0.339 C 
BRANCH  30   2
ATOM      2  O   UNL     1      -6.981   0.746   0.118  0.00  0.00    -0.464 OA
ATOM     32  C   UNL     1      -8.395   0.967   0.123  0.00  0.00    +0.280 C 
ENDBRANCH  30   2
ENDBRANCH  26  30
ENDBRANCH  16  20
ENDBRANCH  11  16
TORSDOF 9
