REMARK  Name = 25389078
REMARK  7 active torsions:
REMARK  status: ('A' for Active; 'I' for Inactive)
REMARK    1  A    between atoms: S_1  and  N_6
REMARK    2  A    between atoms: S_1  and  C_25
REMARK    3  A    between atoms: N_5  and  C_24
REMARK    4  A    between atoms: N_6  and  C_16
REMARK    5  A    between atoms: C_9  and  C_15
REMARK    6  A    between atoms: C_10  and  C_16
REMARK    7  A    between atoms: C_18  and  C_19
REMARK                            x       y       z     vdW  Elec       q    Type
REMARK                         _______ _______ _______ _____ _____    ______ ____
ROOT
ATOM      4  N   UNL     1      -2.795  -1.866   0.511  0.00  0.00    -0.297 NA
ATOM      8  C   UNL     1      -1.114  -1.945  -1.476  0.00  0.00    +0.002 C 
ATOM      9  C   UNL     1      -0.400  -2.308  -0.145  0.00  0.00    +0.055 C 
ATOM     10  C   UNL     1      -2.893  -0.615  -0.287  0.00  0.00    +0.072 C 
ATOM     11  C   UNL     1      -1.767  -0.553  -1.341  0.00  0.00    +0.024 C 
ATOM     12  C   UNL     1      -1.409  -2.044   1.009  0.00  0.00    +0.094 C 
ATOM     13  C   UNL     1      -2.257  -2.966  -1.661  0.00  0.00    +0.019 C 
ATOM     14  C   UNL     1      -3.115  -3.003  -0.385  0.00  0.00    +0.085 C 
ENDROOT
BRANCH   9  15
ATOM      5  N   UNL     1       1.929  -2.321   0.863  0.00  0.00    -0.271 N 
ATOM      7  N   UNL     1       3.063  -1.610   0.989  0.00  0.00    -0.176 NA
ATOM     15  C   UNL     1       0.965  -1.694   0.129  0.00  0.00    +0.044 A 
ATOM     17  C   UNL     1       1.506  -0.490  -0.251  0.00  0.00    +0.048 A 
ATOM     19  C   UNL     1       2.799  -0.493   0.306  0.00  0.00    +0.066 A 
ATOM     24  C   UNL     1       1.838  -3.620   1.488  0.00  0.00    +0.172 C 
BRANCH  19  18
ATOM     18  C   UNL     1       3.849   0.591   0.204  0.00  0.00    +0.040 C 
ATOM     20  C   UNL     1       4.267   0.871  -1.251  0.00  0.00    +0.010 C 
ATOM     21  C   UNL     1       3.419   1.954   0.785  0.00  0.00    +0.010 C 
ATOM     22  C   UNL     1       4.525   2.370  -1.297  0.00  0.00    +0.001 C 
ATOM     23  C   UNL     1       3.447   2.931  -0.385  0.00  0.00    +0.001 C 
ENDBRANCH  19  18
ENDBRANCH   9  15
BRANCH  10  16
ATOM     16  C   UNL     1      -2.922   0.637   0.592  0.00  0.00    +0.124 C 
BRANCH  16   6
ATOM      6  N   UNL     1      -3.144   1.819  -0.257  0.00  0.00    -0.193 NA
ATOM     26  H   UNL     1      -4.075   1.842  -0.693  0.00  0.00    +0.148 HD
BRANCH   6   1
ATOM      1  S   UNL     1      -2.497   3.325   0.223  0.00  0.00    +0.027 S 
ATOM      2  O   UNL     1      -3.078   4.386  -0.576  0.00  0.00    -0.158 OA
ATOM      3  O   UNL     1      -1.058   3.191   0.344  0.00  0.00    -0.158 OA
ATOM     25  C   UNL     1      -3.159   3.454   1.869  0.00  0.00    +0.214 C 
ENDBRANCH   6   1
ENDBRANCH  16   6
ENDBRANCH  10  16
TORSDOF 5
