REMARK  Name = 75536958
REMARK  5 active torsions:
REMARK  status: ('A' for Active; 'I' for Inactive)
REMARK    1  A    between atoms: O_2  and  C_7
REMARK    2  A    between atoms: N_4  and  C_9
REMARK    3  A    between atoms: C_9  and  C_12
REMARK    4  A    between atoms: C_13  and  C_15
REMARK    5  A    between atoms: C_14  and  C_16
REMARK                            x       y       z     vdW  Elec       q    Type
REMARK                         _______ _______ _______ _____ _____    ______ ____
ROOT
ATOM      1  O   UNL     1       2.956   0.968  -1.525  0.00  0.00    -0.376 OA
ATOM      4  N   UNL     1       0.696   0.076   0.431  0.00  0.00    -0.293 NA
ATOM      6  C   UNL     1       1.858  -0.390   1.197  0.00  0.00    +0.118 C 
ATOM      7  C   UNL     1       3.255  -0.104   0.625  0.00  0.00    +0.154 C 
ATOM      8  C   UNL     1       0.888   1.367  -0.231  0.00  0.00    +0.113 C 
ATOM     10  C   UNL     1       3.355  -0.242  -0.889  0.00  0.00    +0.192 C 
ATOM     11  C   UNL     1       1.550   1.160  -1.595  0.00  0.00    +0.175 C 
ENDROOT
BRANCH   7   2
ATOM      2  O   UNL     1       4.173  -1.028   1.212  0.00  0.00    -0.388 OA
ATOM     17  H   UNL     1       4.130  -0.909   2.176  0.00  0.00    +0.210 HD
ENDBRANCH   7   2
BRANCH   4   9
ATOM      9  C   UNL     1      -0.496   0.080   1.279  0.00  0.00    +0.125 C 
BRANCH   9  12
ATOM      3  O   UNL     1      -3.767   0.168  -0.439  0.00  0.00    -0.359 OA
ATOM      5  N   UNL     1      -3.299  -1.050  -0.915  0.00  0.00    -0.083 NA
ATOM     12  C   UNL     1      -1.755  -0.121   0.477  0.00  0.00    +0.031 A 
ATOM     13  C   UNL     1      -2.839   0.712   0.389  0.00  0.00    +0.139 A 
ATOM     14  C   UNL     1      -2.096  -1.201  -0.354  0.00  0.00    +0.085 A 
ATOM     15  C   UNL     1      -3.177   2.012   0.985  0.00  0.00    +0.089 C 
ATOM     16  C   UNL     1      -1.302  -2.407  -0.647  0.00  0.00    +0.069 C 
ENDBRANCH   9  12
ENDBRANCH   4   9
TORSDOF 3
