REMARK  Name = 7663919
REMARK  8 active torsions:
REMARK  status: ('A' for Active; 'I' for Inactive)
REMARK    1  A    between atoms: O_4  and  C_30
REMARK    2  A    between atoms: O_4  and  C_31
REMARK    3  A    between atoms: N_9  and  C_28
REMARK    4  A    between atoms: C_10  and  C_16
REMARK    5  A    between atoms: C_11  and  C_25
REMARK    6  A    between atoms: C_18  and  C_22
REMARK    7  A    between atoms: C_28  and  C_29
REMARK    8  A    between atoms: C_28  and  C_30
REMARK                            x       y       z     vdW  Elec       q    Type
REMARK                         _______ _______ _______ _____ _____    ______ ____
ROOT
ATOM      1  O   UNL     1      -3.198  -0.199   1.054  0.00  0.00    -0.275 OA
ATOM      2  O   UNL     1       3.453  -2.541  -0.996  0.00  0.00    -0.275 OA
ATOM      6  N   UNL     1      -1.302  -1.352   0.354  0.00  0.00    -0.287 N 
ATOM      7  N   UNL     1       1.592  -1.646   0.071  0.00  0.00    -0.298 N 
ATOM     11  C   UNL     1      -0.392  -0.306   0.826  0.00  0.00    +0.179 C 
ATOM     14  C   UNL     1       1.013  -0.819   1.138  0.00  0.00    +0.139 C 
ATOM     15  C   UNL     1      -0.694  -2.561  -0.215  0.00  0.00    +0.127 C 
ATOM     16  C   UNL     1      -2.676  -1.210   0.577  0.00  0.00    +0.219 C 
ATOM     17  C   UNL     1       0.661  -2.291  -0.853  0.00  0.00    +0.127 C 
ATOM     22  C   UNL     1       2.963  -1.846  -0.102  0.00  0.00    +0.219 C 
ENDROOT
BRANCH  22  18
ATOM      8  N   UNL     1       6.433  -0.496  -0.384  0.00  0.00    -0.316 NA
ATOM     18  C   UNL     1       3.867  -1.152   0.877  0.00  0.00    +0.078 C 
ATOM     23  C   UNL     1       5.137  -1.970   1.122  0.00  0.00    +0.028 C 
ATOM     24  C   UNL     1       4.210   0.260   0.396  0.00  0.00    +0.028 C 
ATOM     26  C   UNL     1       6.117  -1.884  -0.050  0.00  0.00    +0.081 C 
ATOM     27  C   UNL     1       5.229   0.252  -0.745  0.00  0.00    +0.081 C 
ATOM     32  H   UNL     1       7.088  -0.478  -1.165  0.00  0.00    +0.122 HD
ENDBRANCH  22  18
BRANCH  16  10
ATOM     10  C   UNL     1      -3.539  -2.376   0.191  0.00  0.00    +0.075 C 
ATOM     12  C   UNL     1      -3.927  -2.279  -1.286  0.00  0.00    +0.013 C 
ATOM     13  C   UNL     1      -4.753  -2.491   1.116  0.00  0.00    +0.013 C 
ATOM     19  C   UNL     1      -5.015  -1.240  -1.552  0.00  0.00    +0.001 C 
ATOM     20  C   UNL     1      -5.844  -1.463   0.817  0.00  0.00    +0.001 C 
ATOM     21  C   UNL     1      -6.231  -1.457  -0.657  0.00  0.00    +0.000 C 
ENDBRANCH  16  10
BRANCH  11  25
ATOM      3  O   UNL     1      -0.508   0.496  -1.422  0.00  0.00    -0.274 OA
ATOM      9  N   UNL     1      -0.155   2.021   0.302  0.00  0.00    -0.301 N 
ATOM     25  C   UNL     1      -0.369   0.761  -0.230  0.00  0.00    +0.236 C 
ATOM     33  H   UNL     1      -0.024   2.120   1.304  0.00  0.00    +0.150 HD
BRANCH   9  28
ATOM     28  C   UNL     1      -0.068   3.216  -0.506  0.00  0.00    +0.179 C 
ATOM     29  C   UNL     1       1.372   3.465  -0.927  0.00  0.00    +0.040 C 
BRANCH  28  30
ATOM      5  O   UNL     1      -1.024   4.386   1.378  0.00  0.00    -0.249 OA
ATOM     30  C   UNL     1      -0.625   4.432   0.218  0.00  0.00    +0.327 C 
BRANCH  30   4
ATOM      4  O   UNL     1      -0.614   5.549  -0.563  0.00  0.00    -0.467 OA
ATOM     31  C   UNL     1      -1.115   6.742   0.049  0.00  0.00    +0.280 C 
ENDBRANCH  30   4
ENDBRANCH  28  30
ENDBRANCH   9  28
ENDBRANCH  11  25
TORSDOF 6
