REMARK  Name = 26763465
REMARK  9 active torsions:
REMARK  status: ('A' for Active; 'I' for Inactive)
REMARK    1  A    between atoms: S_1  and  N_6
REMARK    2  A    between atoms: S_1  and  C_18
REMARK    3  A    between atoms: N_6  and  C_13
REMARK    4  A    between atoms: N_7  and  C_14
REMARK    5  A    between atoms: N_10  and  C_33
REMARK    6  A    between atoms: N_10  and  C_34
REMARK    7  A    between atoms: N_10  and  C_35
REMARK    8  A    between atoms: C_21  and  C_27
REMARK    9  A    between atoms: C_26  and  C_28
REMARK                            x       y       z     vdW  Elec       q    Type
REMARK                         _______ _______ _______ _____ _____    ______ ____
ROOT
ATOM      2  O   UNL     1       0.272   1.318   1.489  0.00  0.00    -0.370 OA
ATOM      3  O   UNL     1       2.355  -0.951   2.015  0.00  0.00    -0.370 OA
ATOM     11  C   UNL     1       2.047  -0.140   0.869  0.00  0.00    +0.170 C 
ATOM     12  C   UNL     1       0.545   0.060   0.849  0.00  0.00    +0.171 C 
ATOM     13  C   UNL     1       2.603   1.252   1.050  0.00  0.00    +0.133 C 
ATOM     14  C   UNL     1       0.008  -1.079   1.683  0.00  0.00    +0.130 C 
ATOM     15  C   UNL     1       1.513   1.947   1.841  0.00  0.00    +0.183 C 
ATOM     16  C   UNL     1       1.135  -1.330   2.668  0.00  0.00    +0.185 C 
ENDROOT
BRANCH  14   7
ATOM      7  N   UNL     1      -0.200  -2.245   0.853  0.00  0.00    -0.306 N 
ATOM      8  N   UNL     1      -2.312  -1.526   0.204  0.00  0.00    -0.214 NA
ATOM      9  N   UNL     1      -1.394  -3.603  -0.605  0.00  0.00    -0.223 NA
ATOM     17  C   UNL     1      -1.353  -2.468   0.119  0.00  0.00    +0.216 A 
ATOM     21  C   UNL     1      -3.419  -1.774  -0.526  0.00  0.00    +0.076 A 
ATOM     22  C   UNL     1      -2.529  -3.787  -1.311  0.00  0.00    +0.116 A 
ATOM     25  C   UNL     1      -3.585  -2.898  -1.310  0.00  0.00    +0.048 A 
ATOM     37  H   UNL     1       0.546  -2.923   0.751  0.00  0.00    +0.149 HD
BRANCH  21  27
ATOM     27  C   UNL     1      -4.449  -0.767  -0.439  0.00  0.00    +0.001 A 
ATOM     29  C   UNL     1      -5.715  -1.105   0.039  0.00  0.00    +0.012 A 
ATOM     30  C   UNL     1      -4.178   0.544  -0.831  0.00  0.00    +0.012 A 
ATOM     31  C   UNL     1      -6.711  -0.133   0.124  0.00  0.00    +0.024 A 
ATOM     32  C   UNL     1      -5.174   1.517  -0.745  0.00  0.00    +0.024 A 
ATOM     33  C   UNL     1      -6.441   1.179  -0.268  0.00  0.00    +0.029 A 
BRANCH  33  10
ATOM     10  N   UNL     1      -7.447   2.163  -0.180  0.00  0.00    -0.336 N 
ATOM     34  C   UNL     1      -8.765   1.822   0.317  0.00  0.00    +0.129 C 
ATOM     35  C   UNL     1      -7.174   3.530  -0.578  0.00  0.00    +0.129 C 
ENDBRANCH  33  10
ENDBRANCH  21  27
ENDBRANCH  14   7
BRANCH  13   6
ATOM      6  N   UNL     1       2.752   1.905  -0.273  0.00  0.00    -0.182 NA
ATOM     36  H   UNL     1       2.017   1.741  -0.971  0.00  0.00    +0.148 HD
BRANCH   6   1
ATOM      1  S   UNL     1       4.254   2.547  -0.735  0.00  0.00    +0.059 S 
ATOM      4  O   UNL     1       4.719   3.471   0.282  0.00  0.00    -0.153 OA
ATOM      5  O   UNL     1       4.176   2.968  -2.121  0.00  0.00    -0.153 OA
BRANCH   1  18
ATOM     18  C   UNL     1       5.292   1.117  -0.688  0.00  0.00    +0.105 A 
ATOM     19  C   UNL     1       5.442   0.327  -1.827  0.00  0.00    +0.029 A 
ATOM     20  C   UNL     1       5.961   0.779   0.489  0.00  0.00    +0.029 A 
ATOM     23  C   UNL     1       6.260  -0.802  -1.791  0.00  0.00    +0.005 A 
ATOM     24  C   UNL     1       6.779  -0.350   0.525  0.00  0.00    +0.005 A 
ATOM     26  C   UNL     1       6.929  -1.141  -0.614  0.00  0.00    -0.050 A 
ATOM     28  C   UNL     1       7.804  -2.348  -0.575  0.00  0.00    +0.044 C 
ENDBRANCH   1  18
ENDBRANCH   6   1
ENDBRANCH  13   6
TORSDOF 6
