REMARK  Name = 75537114
REMARK  3 active torsions:
REMARK  status: ('A' for Active; 'I' for Inactive)
REMARK    1  A    between atoms: N_4  and  C_13
REMARK    2  A    between atoms: N_5  and  C_14
REMARK    3  A    between atoms: C_13  and  C_15
REMARK                            x       y       z     vdW  Elec       q    Type
REMARK                         _______ _______ _______ _____ _____    ______ ____
ROOT
ATOM      2  O   UNL     1       3.788   1.931  -0.021  0.00  0.00    -0.252 OA
ATOM      3  N   UNL     1       1.898   0.557  -0.260  0.00  0.00    -0.278 N 
ATOM      4  N   UNL     1      -0.714  -0.407   0.139  0.00  0.00    -0.293 NA
ATOM      5  N   UNL     1       3.909  -0.424  -0.062  0.00  0.00    -0.287 N 
ATOM      7  C   UNL     1       1.634  -0.854  -0.448  0.00  0.00    +0.109 C 
ATOM      8  C   UNL     1       0.440  -1.290   0.402  0.00  0.00    +0.109 C 
ATOM      9  C   UNL     1       2.958  -1.523  -0.084  0.00  0.00    +0.132 C 
ATOM     10  C   UNL     1       0.803   1.501  -0.348  0.00  0.00    +0.125 C 
ATOM     11  C   UNL     1      -0.390   0.996   0.468  0.00  0.00    +0.104 C 
ATOM     12  C   UNL     1       3.264   0.829  -0.108  0.00  0.00    +0.305 C 
ATOM     14  C   UNL     1       5.325  -0.639   0.139  0.00  0.00    +0.133 C 
ENDROOT
BRANCH   4  13
ATOM     13  C   UNL     1      -1.880  -0.852   0.902  0.00  0.00    +0.147 C 
BRANCH  13  15
ATOM      1  S   UNL     1      -4.229   0.599   1.218  0.00  0.00    -0.079 S 
ATOM      6  N   UNL     1      -3.555  -0.655  -0.939  0.00  0.00    -0.251 NA
ATOM     15  C   UNL     1      -3.169  -0.376   0.286  0.00  0.00    +0.092 A 
ATOM     16  C   UNL     1      -5.304   0.664  -0.117  0.00  0.00    +0.066 A 
ATOM     17  C   UNL     1      -4.779  -0.058  -1.168  0.00  0.00    +0.119 A 
ENDBRANCH  13  15
ENDBRANCH   4  13
TORSDOF 2
