REMARK  Name = 11884350
REMARK  9 active torsions:
REMARK  status: ('A' for Active; 'I' for Inactive)
REMARK    1  A    between atoms: O_3  and  C_12
REMARK    2  A    between atoms: O_5  and  C_19
REMARK    3  A    between atoms: O_5  and  C_22
REMARK    4  A    between atoms: O_6  and  C_20
REMARK    5  A    between atoms: O_6  and  C_23
REMARK    6  A    between atoms: O_7  and  C_21
REMARK    7  A    between atoms: O_7  and  C_24
REMARK    8  A    between atoms: N_8  and  C_11
REMARK    9  A    between atoms: C_15  and  C_16
REMARK                            x       y       z     vdW  Elec       q    Type
REMARK                         _______ _______ _______ _____ _____    ______ ____
ROOT
ATOM      4  O   UNL     1      -0.194   2.477   0.952  0.00  0.00    -0.270 OA
ATOM      8  N   UNL     1      -1.204   0.461   0.410  0.00  0.00    -0.304 N 
ATOM     15  C   UNL     1      -0.116   1.296   0.622  0.00  0.00    +0.245 C 
ATOM     25  H   UNL     1      -1.069  -0.470   0.029  0.00  0.00    +0.149 HD
ENDROOT
BRANCH   8  11
ATOM      1  O   UNL     1      -3.703   0.292  -1.447  0.00  0.00    -0.369 OA
ATOM      2  O   UNL     1      -4.752   0.252   1.422  0.00  0.00    -0.369 OA
ATOM      9  C   UNL     1      -3.520  -0.241   0.853  0.00  0.00    +0.172 C 
ATOM     10  C   UNL     1      -3.861  -0.793  -0.516  0.00  0.00    +0.179 C 
ATOM     11  C   UNL     1      -2.585   0.914   0.564  0.00  0.00    +0.130 C 
ATOM     12  C   UNL     1      -5.311  -1.184  -0.357  0.00  0.00    +0.171 C 
ATOM     13  C   UNL     1      -3.117   1.415  -0.771  0.00  0.00    +0.185 C 
ATOM     14  C   UNL     1      -5.838  -0.096   0.551  0.00  0.00    +0.194 C 
BRANCH  12   3
ATOM      3  O   UNL     1      -6.014  -1.244  -1.578  0.00  0.00    -0.387 OA
ATOM     26  H   UNL     1      -5.892  -0.396  -2.037  0.00  0.00    +0.210 HD
ENDBRANCH  12   3
ENDBRANCH   8  11
BRANCH  15  16
ATOM     16  C   UNL     1       1.222   0.692   0.399  0.00  0.00    +0.044 A 
ATOM     17  C   UNL     1       2.272   1.510   0.036  0.00  0.00    +0.062 A 
ATOM     18  C   UNL     1       1.374  -0.670   0.563  0.00  0.00    +0.062 A 
ATOM     19  C   UNL     1       2.631  -1.238   0.355  0.00  0.00    +0.166 A 
ATOM     20  C   UNL     1       3.529   0.942  -0.171  0.00  0.00    +0.166 A 
ATOM     21  C   UNL     1       3.708  -0.432  -0.011  0.00  0.00    +0.204 A 
BRANCH  19   5
ATOM      5  O   UNL     1       2.793  -2.581   0.516  0.00  0.00    -0.491 OA
ATOM     22  C   UNL     1       2.587  -3.400  -0.633  0.00  0.00    +0.277 C 
ENDBRANCH  19   5
BRANCH  20   6
ATOM      6  O   UNL     1       4.572   1.741  -0.530  0.00  0.00    -0.491 OA
ATOM     23  C   UNL     1       4.785   1.942  -1.926  0.00  0.00    +0.277 C 
ENDBRANCH  20   6
BRANCH  21   7
ATOM      7  O   UNL     1       4.937  -0.986  -0.215  0.00  0.00    -0.488 OA
ATOM     24  C   UNL     1       5.804  -1.070   0.914  0.00  0.00    +0.277 C 
ENDBRANCH  21   7
ENDBRANCH  15  16
TORSDOF 6
