REMARK  Name = 44716338
REMARK  9 active torsions:
REMARK  status: ('A' for Active; 'I' for Inactive)
REMARK    1  A    between atoms: O_1  and  C_30
REMARK    2  A    between atoms: O_1  and  C_31
REMARK    3  A    between atoms: N_3  and  C_20
REMARK    4  A    between atoms: N_4  and  C_14
REMARK    5  A    between atoms: N_4  and  C_24
REMARK    6  A    between atoms: C_7  and  C_13
REMARK    7  A    between atoms: C_8  and  C_14
REMARK    8  A    between atoms: C_16  and  C_17
REMARK    9  A    between atoms: C_24  and  C_25
REMARK                            x       y       z     vdW  Elec       q    Type
REMARK                         _______ _______ _______ _____ _____    ______ ____
ROOT
ATOM      2  N   UNL     1      -4.083   0.757   0.732  0.00  0.00    -0.298 NA
ATOM      6  C   UNL     1      -3.409  -0.824  -1.225  0.00  0.00    +0.002 C 
ATOM      7  C   UNL     1      -2.964  -1.424   0.138  0.00  0.00    +0.055 C 
ATOM      8  C   UNL     1      -3.377   1.529  -0.325  0.00  0.00    +0.071 C 
ATOM      9  C   UNL     1      -2.789   0.579  -1.391  0.00  0.00    +0.024 C 
ATOM     10  C   UNL     1      -3.216  -0.341   1.226  0.00  0.00    +0.094 C 
ATOM     11  C   UNL     1      -4.940  -0.638  -1.150  0.00  0.00    +0.019 C 
ATOM     12  C   UNL     1      -5.292   0.154   0.122  0.00  0.00    +0.085 C 
ENDROOT
BRANCH   7  13
ATOM      3  N   UNL     1      -1.264  -3.063   1.069  0.00  0.00    -0.271 N 
ATOM      5  N   UNL     1       0.022  -3.449   1.007  0.00  0.00    -0.176 NA
ATOM     13  C   UNL     1      -1.570  -2.027   0.236  0.00  0.00    +0.044 A 
ATOM     15  C   UNL     1      -0.403  -1.714  -0.418  0.00  0.00    +0.048 A 
ATOM     16  C   UNL     1       0.543  -2.622   0.096  0.00  0.00    +0.066 A 
ATOM     20  C   UNL     1      -2.162  -3.745   1.972  0.00  0.00    +0.172 C 
BRANCH  16  17
ATOM     17  C   UNL     1       2.011  -2.735  -0.272  0.00  0.00    +0.040 C 
ATOM     18  C   UNL     1       2.901  -1.898   0.663  0.00  0.00    +0.010 C 
ATOM     19  C   UNL     1       2.262  -2.369  -1.745  0.00  0.00    +0.010 C 
ATOM     21  C   UNL     1       4.378  -2.026   0.291  0.00  0.00    +0.001 C 
ATOM     22  C   UNL     1       3.741  -2.495  -2.108  0.00  0.00    +0.001 C 
ATOM     23  C   UNL     1       4.622  -1.671  -1.173  0.00  0.00    +0.000 C 
ENDBRANCH  16  17
ENDBRANCH   7  13
BRANCH   8  14
ATOM     14  C   UNL     1      -2.314   2.467   0.251  0.00  0.00    +0.100 C 
BRANCH  14   4
ATOM      4  N   UNL     1      -1.748   3.307  -0.792  0.00  0.00    -0.311 NA
ATOM     32  H   UNL     1      -2.494   3.869  -1.204  0.00  0.00    +0.122 HD
BRANCH   4  24
ATOM     24  C   UNL     1      -0.728   4.197  -0.252  0.00  0.00    +0.116 C 
BRANCH  24  25
ATOM     25  C   UNL     1       0.587   3.489  -0.056  0.00  0.00    -0.033 A 
ATOM     26  C   UNL     1       1.167   3.434   1.212  0.00  0.00    +0.008 A 
ATOM     27  C   UNL     1       1.224   2.888  -1.141  0.00  0.00    +0.008 A 
ATOM     28  C   UNL     1       2.384   2.778   1.393  0.00  0.00    +0.046 A 
ATOM     29  C   UNL     1       2.441   2.232  -0.960  0.00  0.00    +0.046 A 
ATOM     30  C   UNL     1       3.022   2.177   0.308  0.00  0.00    +0.120 A 
BRANCH  30   1
ATOM      1  O   UNL     1       4.209   1.536   0.485  0.00  0.00    -0.495 OA
ATOM     31  C   UNL     1       4.746   1.518   1.807  0.00  0.00    +0.277 C 
ENDBRANCH  30   1
ENDBRANCH  24  25
ENDBRANCH   4  24
ENDBRANCH  14   4
ENDBRANCH   8  14
TORSDOF 7
