REMARK  Name = 38029612
REMARK  13 active torsions:
REMARK  status: ('A' for Active; 'I' for Inactive)
REMARK    1  A    between atoms: O_1  and  C_18
REMARK    2  A    between atoms: O_4  and  C_21
REMARK    3  A    between atoms: O_4  and  C_22
REMARK    4  A    between atoms: N_5  and  C_13
REMARK    5  A    between atoms: C_6  and  C_10
REMARK    6  A    between atoms: C_7  and  C_13
REMARK    7  A    between atoms: C_9  and  C_14
REMARK    8  A    between atoms: C_10  and  C_15
REMARK    9  A    between atoms: C_10  and  C_16
REMARK   10  A    between atoms: C_11  and  C_17
REMARK   11  A    between atoms: C_14  and  C_18
REMARK   12  A    between atoms: C_19  and  C_20
REMARK   13  A    between atoms: C_20  and  C_21
REMARK                            x       y       z     vdW  Elec       q    Type
REMARK                         _______ _______ _______ _____ _____    ______ ____
ROOT
ATOM      6  C   UNL     1       0.360   1.252   0.730  0.00  0.00    +0.000 C 
ATOM      7  C   UNL     1       0.103   2.217  -0.454  0.00  0.00    +0.032 C 
ATOM      8  C   UNL     1       1.832   0.811   0.752  0.00  0.00    +0.012 C 
ATOM      9  C   UNL     1       2.248   0.105  -0.552  0.00  0.00    +0.025 C 
ATOM     11  C   UNL     1       1.790   0.870  -1.777  0.00  0.00    -0.073 C 
ATOM     12  C   UNL     1       0.839   1.820  -1.712  0.00  0.00    -0.022 C 
ATOM     17  C   UNL     1       2.481   0.551  -3.074  0.00  0.00    +0.039 C 
ENDROOT
BRANCH   6  10
ATOM     10  C   UNL     1      -0.011   1.887   2.073  0.00  0.00    -0.013 C 
ATOM     15  C   UNL     1      -0.329   0.807   3.103  0.00  0.00    +0.007 C 
ATOM     16  C   UNL     1       1.116   2.789   2.565  0.00  0.00    +0.007 C 
ENDBRANCH   6  10
BRANCH   7  13
ATOM     13  C   UNL     1      -1.395   2.336  -0.755  0.00  0.00    +0.112 C 
BRANCH  13   5
ATOM      3  O   UNL     1      -3.496   0.765   0.450  0.00  0.00    -0.276 OA
ATOM      5  N   UNL     1      -1.918   1.091  -1.226  0.00  0.00    -0.315 N 
ATOM     19  C   UNL     1      -2.940   0.394  -0.580  0.00  0.00    +0.215 C 
ATOM     23  H   UNL     1      -1.558   0.724  -2.102  0.00  0.00    +0.149 HD
BRANCH  19  20
ATOM     20  C   UNL     1      -3.297  -0.895  -1.303  0.00  0.00    +0.124 C 
BRANCH  20  21
ATOM     21  C   UNL     1      -2.484  -2.089  -0.825  0.00  0.00    +0.168 C 
BRANCH  21   4
ATOM      4  O   UNL     1      -2.745  -2.316   0.554  0.00  0.00    -0.382 OA
ATOM     22  C   UNL     1      -2.013  -3.430   1.047  0.00  0.00    +0.194 C 
ENDBRANCH  21   4
ENDBRANCH  20  21
ENDBRANCH  19  20
ENDBRANCH  13   5
ENDBRANCH   7  13
BRANCH   9  14
ATOM     14  C   UNL     1       1.740  -1.340  -0.586  0.00  0.00    +0.128 C 
BRANCH  14  18
ATOM      2  O   UNL     1       3.502  -1.898   1.004  0.00  0.00    -0.251 OA
ATOM     18  C   UNL     1       2.550  -2.230   0.313  0.00  0.00    +0.305 C 
BRANCH  18   1
ATOM      1  O   UNL     1       2.067  -3.497   0.253  0.00  0.00    -0.481 OA
ATOM     24  H   UNL     1       2.572  -4.109   0.830  0.00  0.00    +0.295 HD
ENDBRANCH  18   1
ENDBRANCH  14  18
ENDBRANCH   9  14
TORSDOF 9
