REMARK  Name = 75368653
REMARK  4 active torsions:
REMARK  status: ('A' for Active; 'I' for Inactive)
REMARK    1  A    between atoms: N_2  and  C_6
REMARK    2  A    between atoms: N_4  and  C_17
REMARK    3  A    between atoms: C_17  and  C_18
REMARK    4  A    between atoms: C_17  and  C_19
REMARK                            x       y       z     vdW  Elec       q    Type
REMARK                         _______ _______ _______ _____ _____    ______ ____
ROOT
ATOM      1  O   UNL     1       1.264   1.991   0.183  0.00  0.00    -0.252 OA
ATOM      2  N   UNL     1       1.227  -0.314  -0.317  0.00  0.00    -0.281 N 
ATOM      3  N   UNL     1      -0.710   0.823  -0.324  0.00  0.00    -0.278 N 
ATOM      4  N   UNL     1      -3.387  -0.017  -0.127  0.00  0.00    -0.297 NA
ATOM      5  C   UNL     1      -1.065  -0.503  -0.785  0.00  0.00    +0.109 C 
ATOM      7  C   UNL     1       0.205  -1.319  -0.556  0.00  0.00    +0.133 C 
ATOM      8  C   UNL     1      -2.299  -1.012  -0.040  0.00  0.00    +0.108 C 
ATOM      9  C   UNL     1      -1.737   1.839  -0.229  0.00  0.00    +0.125 C 
ATOM     12  C   UNL     1       0.669   0.965  -0.118  0.00  0.00    +0.305 C 
ATOM     13  C   UNL     1      -2.974   1.269   0.470  0.00  0.00    +0.103 C 
ENDROOT
BRANCH   2   6
ATOM      6  C   UNL     1       2.619  -0.660  -0.159  0.00  0.00    +0.078 C 
ATOM     10  C   UNL     1       3.068  -0.432   1.287  0.00  0.00    +0.022 C 
ATOM     11  C   UNL     1       3.488   0.127  -1.143  0.00  0.00    +0.022 C 
ATOM     14  C   UNL     1       4.551  -0.741   1.470  0.00  0.00    +0.002 C 
ATOM     15  C   UNL     1       4.971  -0.184  -0.956  0.00  0.00    +0.002 C 
ATOM     16  C   UNL     1       5.416   0.041   0.486  0.00  0.00    +0.000 C 
ENDBRANCH   2   6
BRANCH   4  17
ATOM     17  C   UNL     1      -4.592  -0.521   0.531  0.00  0.00    +0.051 C 
ATOM     18  C   UNL     1      -5.004  -1.861  -0.073  0.00  0.00    +0.024 C 
ATOM     19  C   UNL     1      -5.711   0.507   0.399  0.00  0.00    +0.024 C 
ENDBRANCH   4  17
TORSDOF 2
