REMARK  Name = 25313754
REMARK  7 active torsions:
REMARK  status: ('A' for Active; 'I' for Inactive)
REMARK    1  A    between atoms: C_8  and  C_12
REMARK    2  A    between atoms: C_9  and  C_13
REMARK    3  A    between atoms: C_12  and  C_22
REMARK    4  A    between atoms: C_13  and  C_21
REMARK    5  A    between atoms: C_15  and  C_18
REMARK    6  A    between atoms: C_18  and  C_24
REMARK    7  A    between atoms: C_30  and  C_31
REMARK                            x       y       z     vdW  Elec       q    Type
REMARK                         _______ _______ _______ _____ _____    ______ ____
ROOT
ATOM      4  N   UNL     1      -0.954   2.912   1.165  0.00  0.00    -0.316 NA
ATOM      8  C   UNL     1       0.875   1.615  -0.753  0.00  0.00    +0.004 C 
ATOM      9  C   UNL     1      -0.514   1.033  -0.397  0.00  0.00    +0.012 C 
ATOM     10  C   UNL     1       0.866   3.130  -0.491  0.00  0.00    +0.019 C 
ATOM     11  C   UNL     1      -0.963   1.457   1.011  0.00  0.00    +0.085 C 
ATOM     14  C   UNL     1       0.370   3.477   0.912  0.00  0.00    +0.081 C 
ATOM     32  H   UNL     1      -1.248   3.154   2.111  0.00  0.00    +0.122 HD
ENDROOT
BRANCH   8  12
ATOM     12  C   UNL     1       2.041   0.941  -0.020  0.00  0.00    +0.100 C 
BRANCH  12  22
ATOM      2  O   UNL     1       3.303   1.824  -1.821  0.00  0.00    -0.276 OA
ATOM      3  O   UNL     1       7.785  -2.289   1.932  0.00  0.00    -0.276 OA
ATOM      5  N   UNL     1       4.487   0.657  -0.199  0.00  0.00    -0.298 N 
ATOM      6  N   UNL     1       6.591  -1.179   0.277  0.00  0.00    -0.299 N 
ATOM     22  C   UNL     1       3.328   1.185  -0.766  0.00  0.00    +0.216 C 
ATOM     26  C   UNL     1       5.779   0.847  -0.864  0.00  0.00    +0.126 C 
ATOM     27  C   UNL     1       4.561  -0.042   1.091  0.00  0.00    +0.126 C 
ATOM     28  C   UNL     1       6.517  -0.480  -1.012  0.00  0.00    +0.126 C 
ATOM     29  C   UNL     1       5.299  -1.370   0.942  0.00  0.00    +0.126 C 
ATOM     30  C   UNL     1       7.750  -1.706   0.845  0.00  0.00    +0.213 C 
ATOM     31  C   UNL     1       9.025  -1.532   0.060  0.00  0.00    +0.109 C 
ENDBRANCH  12  22
ENDBRANCH   8  12
BRANCH   9  13
ATOM     13  C   UNL     1      -0.583  -0.487  -0.548  0.00  0.00    +0.064 C 
BRANCH  13  21
ATOM      1  O   UNL     1      -3.817  -1.510  -1.754  0.00  0.00    -0.359 OA
ATOM      7  N   UNL     1      -2.519  -1.055  -1.950  0.00  0.00    -0.083 NA
ATOM     21  C   UNL     1      -1.998  -0.956  -0.724  0.00  0.00    +0.084 A 
ATOM     24  C   UNL     1      -4.040  -1.671  -0.424  0.00  0.00    +0.138 A 
ATOM     25  C   UNL     1      -2.912  -1.331   0.276  0.00  0.00    +0.071 A 
BRANCH  24  18
ATOM     18  C   UNL     1      -5.372  -2.149  -0.036  0.00  0.00    +0.080 C 
BRANCH  18  15
ATOM     15  C   UNL     1      -6.443  -1.062  -0.099  0.00  0.00    -0.004 C 
ATOM     16  C   UNL     1      -7.817  -1.633   0.278  0.00  0.00    +0.004 C 
ATOM     17  C   UNL     1      -6.073   0.116   0.812  0.00  0.00    +0.004 C 
ATOM     19  C   UNL     1      -8.896  -0.553   0.274  0.00  0.00    +0.000 C 
ATOM     20  C   UNL     1      -7.155   1.193   0.808  0.00  0.00    +0.000 C 
ATOM     23  C   UNL     1      -8.521   0.620   1.174  0.00  0.00    +0.000 C 
ENDBRANCH  18  15
ENDBRANCH  24  18
ENDBRANCH  13  21
ENDBRANCH   9  13
TORSDOF 6
