REMARK  Name = 11885094
REMARK  19 active torsions:
REMARK  status: ('A' for Active; 'I' for Inactive)
REMARK    1  A    between atoms: O_2  and  C_15
REMARK    2  A    between atoms: O_3  and  C_20
REMARK    3  A    between atoms: O_5  and  C_29
REMARK    4  A    between atoms: N_8  and  CA_26
REMARK    5  A    between atoms: C_10  and  C_18
REMARK    6  A    between atoms: C_12  and  C_20
REMARK    7  A    between atoms: C_12  and  C_21
REMARK    8  A    between atoms: C_13  and  C_23
REMARK    9  A    between atoms: C_23  and  C_24
REMARK   10  A    between atoms: CA_26  and  CB_27
REMARK   11  A    between atoms: CA_26  and  C_29
REMARK   12  A    between atoms: CB_27  and  CG_30
REMARK   13  A    between atoms: C_28  and  C_31
REMARK   14  A    between atoms: CG_30  and  CD1_32
REMARK   15  A    between atoms: CG_30  and  CD2_33
REMARK   16  A    between atoms: C_31  and  C_34
REMARK   17  A    between atoms: C_34  and  C_35
REMARK   18  A    between atoms: C_35  and  C_36
REMARK   19  A    between atoms: C_36  and  C_37
REMARK                            x       y       z     vdW  Elec       q    Type
REMARK                         _______ _______ _______ _____ _____    ______ ____
ROOT
ATOM      1  S   UNL     1      -0.762   3.556   0.125  0.00  0.00    -0.057 S 
ATOM      6  O   UNL     1       3.276   1.241  -0.122  0.00  0.00    -0.275 OA
ATOM      7  N   UNL     1       0.311   1.208  -0.038  0.00  0.00    -0.229 NA
ATOM      9  N   UNL     1       1.817   3.089   0.027  0.00  0.00    -0.265 N 
ATOM     10  C   UNL     1      -3.217  -0.291   0.379  0.00  0.00    -0.019 C 
ATOM     11  C   UNL     1      -3.913   0.947  -0.340  0.00  0.00    +0.011 C 
ATOM     12  C   UNL     1      -5.490   0.962  -0.372  0.00  0.00    +0.021 C 
ATOM     13  C   UNL     1      -1.687  -0.332  -0.081  0.00  0.00    +0.054 C 
ATOM     14  C   UNL     1      -3.900  -1.606  -0.080  0.00  0.00    +0.010 C 
ATOM     15  C   UNL     1      -6.007  -0.439  -0.805  0.00  0.00    +0.123 C 
ATOM     16  C   UNL     1      -3.283   2.296   0.112  0.00  0.00    +0.049 C 
ATOM     17  C   UNL     1      -5.418  -1.579   0.019  0.00  0.00    +0.032 C 
ATOM     18  C   UNL     1      -3.288  -0.208   1.924  0.00  0.00    +0.012 C 
ATOM     19  C   UNL     1      -1.060   1.037   0.001  0.00  0.00    +0.058 A 
ATOM     21  C   UNL     1      -5.966   1.983  -1.444  0.00  0.00    +0.016 C 
ATOM     22  C   UNL     1      -1.795   2.203   0.069  0.00  0.00    +0.015 A 
ATOM     25  C   UNL     1       0.583   2.493   0.028  0.00  0.00    +0.165 A 
ATOM     28  C   UNL     1       3.067   2.447  -0.046  0.00  0.00    +0.219 C 
ATOM     41  H   UNL     1       1.802   4.104   0.085  0.00  0.00    +0.157 HD
ENDROOT
BRANCH  15   2
ATOM      2  O   UNL     1      -7.431  -0.498  -0.720  0.00  0.00    -0.391 OA
ATOM     38  H   UNL     1      -7.709  -1.372  -1.044  0.00  0.00    +0.210 HD
ENDBRANCH  15   2
BRANCH  12  20
ATOM     20  C   UNL     1      -6.153   1.408   0.950  0.00  0.00    +0.165 C 
BRANCH  20   3
ATOM      3  O   UNL     1      -7.551   1.381   0.763  0.00  0.00    -0.394 OA
ATOM     39  H   UNL     1      -7.960   1.672   1.595  0.00  0.00    +0.209 HD
ENDBRANCH  20   3
ENDBRANCH  12  20
BRANCH  13  23
ATOM     23  C   UNL     1      -0.833  -1.385   0.637  0.00  0.00    +0.106 C 
BRANCH  23  24
ATOM      4  O   UNL     1       0.572  -1.408  -1.333  0.00  0.00    -0.276 OA
ATOM      8  N   UNL     1       1.104  -2.774   0.470  0.00  0.00    -0.310 N 
ATOM     24  C   ACE A   0       0.341  -1.831  -0.204  0.00  0.00    +0.214 C 
ATOM     40  H   UNL     1       0.859  -3.012   1.427  0.00  0.00    +0.149 HD
BRANCH   8  26
ATOM     26  CA  UNL     1       2.288  -3.381  -0.093  0.00  0.00    +0.098 C 
BRANCH  26  27
ATOM     27  CB  UNL     1       2.486  -4.808   0.447  0.00  0.00    +0.027 C 
BRANCH  27  30
ATOM     30  CG  UNL     1       3.647  -5.596  -0.199  0.00  0.00    -0.015 C 
ATOM     32  CD1 UNL     1       3.828  -6.984   0.417  0.00  0.00    +0.007 C 
ATOM     33  CD2 UNL     1       3.402  -5.730  -1.705  0.00  0.00    +0.007 C 
ENDBRANCH  27  30
ENDBRANCH  26  27
BRANCH  26  29
ATOM     29  C   UNL     1       3.509  -2.494   0.174  0.00  0.00    +0.178 C 
BRANCH  29   5
ATOM      5  O   UNL     1       3.768  -2.400   1.569  0.00  0.00    -0.393 OA
ATOM     42  H   UNL     1       4.543  -1.822   1.677  0.00  0.00    +0.209 HD
ENDBRANCH  29   5
ENDBRANCH  26  29
ENDBRANCH   8  26
ENDBRANCH  23  24
ENDBRANCH  13  23
BRANCH  28  31
ATOM     31  C   UNL     1       4.206   3.458  -0.023  0.00  0.00    +0.096 C 
BRANCH  31  34
ATOM     34  C   UNL     1       5.581   2.799  -0.101  0.00  0.00    +0.009 C 
BRANCH  34  35
ATOM     35  C   UNL     1       6.699   3.842  -0.114  0.00  0.00    +0.000 C 
BRANCH  35  36
ATOM     36  C   UNL     1       8.076   3.181  -0.157  0.00  0.00    -0.003 C 
ATOM     37  C   UNL     1       9.191   4.214  -0.137  0.00  0.00    +0.004 C 
ENDBRANCH  35  36
ENDBRANCH  34  35
ENDBRANCH  31  34
ENDBRANCH  28  31
TORSDOF 14
