REMARK  Name = 28962858
REMARK  11 active torsions:
REMARK  status: ('A' for Active; 'I' for Inactive)
REMARK    1  A    between atoms: O_1  and  C_10
REMARK    2  A    between atoms: O_4  and  C_26
REMARK    3  A    between atoms: O_4  and  C_27
REMARK    4  A    between atoms: N_5  and  C_14
REMARK    5  A    between atoms: N_6  and  C_22
REMARK    6  A    between atoms: C_7  and  C_17
REMARK    7  A    between atoms: C_9  and  C_19
REMARK    8  A    between atoms: C_12  and  C_18
REMARK    9  A    between atoms: C_18  and  C_20
REMARK   10  A    between atoms: C_18  and  C_21
REMARK   11  A    between atoms: C_25  and  C_26
REMARK                            x       y       z     vdW  Elec       q    Type
REMARK                         _______ _______ _______ _____ _____    ______ ____
ROOT
ATOM      7  C   UNL     1       0.215   1.544   0.389  0.00  0.00    -0.027 C 
ATOM      8  C   UNL     1       0.321   0.068  -0.122  0.00  0.00    +0.028 C 
ATOM      9  C   UNL     1       1.743  -0.213  -0.727  0.00  0.00    +0.012 C 
ATOM     10  C   UNL     1      -0.881  -0.299  -1.040  0.00  0.00    +0.122 C 
ATOM     11  C   UNL     1      -1.154   1.754   1.079  0.00  0.00    +0.007 C 
ATOM     12  C   UNL     1      -2.246   0.011  -0.384  0.00  0.00    +0.029 C 
ATOM     13  C   UNL     1       1.317   1.793   1.444  0.00  0.00    +0.009 C 
ATOM     14  C   UNL     1       2.847   0.113   0.318  0.00  0.00    +0.076 C 
ATOM     15  C   UNL     1      -2.333   1.433   0.170  0.00  0.00    +0.007 C 
ATOM     16  C   UNL     1       2.719   1.511   0.922  0.00  0.00    +0.023 C 
ATOM     17  C   UNL     1       0.360   2.580  -0.755  0.00  0.00    +0.011 C 
ATOM     19  C   UNL     1       1.927  -1.657  -1.224  0.00  0.00    +0.010 C 
ENDROOT
BRANCH  14   5
ATOM      3  O   UNL     1       5.252  -0.711   1.699  0.00  0.00    -0.273 OA
ATOM      5  N   UNL     1       4.174  -0.024  -0.244  0.00  0.00    -0.310 N 
ATOM     25  C   UNL     1       5.267  -0.427   0.504  0.00  0.00    +0.239 C 
ATOM     28  H   UNL     1       4.313   0.249  -1.213  0.00  0.00    +0.149 HD
BRANCH  25  26
ATOM     26  C   UNL     1       6.526  -0.485  -0.335  0.00  0.00    +0.255 C 
BRANCH  26   4
ATOM      4  O   UNL     1       7.625  -0.910   0.443  0.00  0.00    -0.374 OA
ATOM     27  C   UNL     1       8.825  -0.974  -0.323  0.00  0.00    +0.194 C 
ENDBRANCH  26   4
ENDBRANCH  25  26
ENDBRANCH  14   5
BRANCH  10   1
ATOM      1  O   UNL     1      -0.865  -1.701  -1.308  0.00  0.00    -0.391 OA
ATOM     29  H   UNL     1      -0.934  -2.172  -0.460  0.00  0.00    +0.210 HD
ENDBRANCH  10   1
BRANCH  12  18
ATOM     18  C   UNL     1      -3.411  -0.234  -1.351  0.00  0.00    +0.077 C 
ATOM     21  C   UNL     1      -3.260   0.644  -2.588  0.00  0.00    +0.017 C 
BRANCH  18  20
ATOM      2  O   UNL     1      -5.292   1.122  -0.653  0.00  0.00    -0.276 OA
ATOM      6  N   UNL     1      -5.228  -1.103  -0.003  0.00  0.00    -0.312 N 
ATOM     20  C   UNL     1      -4.737   0.025  -0.644  0.00  0.00    +0.216 C 
ATOM     30  H   UNL     1      -4.705  -1.975  -0.041  0.00  0.00    +0.149 HD
BRANCH   6  22
ATOM     22  C   UNL     1      -6.469  -1.105   0.736  0.00  0.00    +0.073 C 
ATOM     23  C   UNL     1      -6.521  -0.652   2.166  0.00  0.00    +0.024 C 
ATOM     24  C   UNL     1      -6.720  -2.101   1.830  0.00  0.00    +0.024 C 
ENDBRANCH   6  22
ENDBRANCH  18  20
ENDBRANCH  12  18
TORSDOF 7
