REMARK  Name = 51137889
REMARK  6 active torsions:
REMARK  status: ('A' for Active; 'I' for Inactive)
REMARK    1  A    between atoms: N_1  and  C_9
REMARK    2  A    between atoms: N_2  and  C_14
REMARK    3  A    between atoms: C_4  and  C_8
REMARK    4  A    between atoms: C_9  and  C_10
REMARK    5  A    between atoms: C_10  and  C_12
REMARK    6  A    between atoms: C_12  and  C_16
REMARK                            x       y       z     vdW  Elec       q    Type
REMARK                         _______ _______ _______ _____ _____    ______ ____
ROOT
ATOM      1  N   UNL     1      -0.783  -0.328   0.284  0.00  0.00    -0.302 NA
ATOM      4  C   UNL     1       1.464  -0.528   0.925  0.00  0.00    +0.070 C 
ATOM      5  C   UNL     1       0.515  -0.730  -0.263  0.00  0.00    +0.095 C 
ATOM      6  C   UNL     1       0.771   0.530   1.802  0.00  0.00    +0.028 C 
ATOM      7  C   UNL     1      -0.507   0.885   1.054  0.00  0.00    +0.085 C 
ENDROOT
BRANCH   4   8
ATOM      2  N   UNL     1       3.821  -1.133   0.269  0.00  0.00    -0.330 N 
ATOM      3  N   UNL     1       3.340   1.036   0.312  0.00  0.00    -0.232 NA
ATOM      8  C   UNL     1       2.872  -0.177   0.501  0.00  0.00    +0.115 A 
ATOM     11  C   UNL     1       4.979  -0.494  -0.096  0.00  0.00    +0.069 A 
ATOM     13  C   UNL     1       4.652   0.859  -0.061  0.00  0.00    +0.089 A 
ATOM     14  C   UNL     1       3.642  -2.563   0.384  0.00  0.00    +0.150 C 
ATOM     15  C   UNL     1       6.244  -0.969  -0.441  0.00  0.00    +0.028 A 
ATOM     17  C   UNL     1       5.635   1.809  -0.388  0.00  0.00    +0.030 A 
ATOM     18  C   UNL     1       7.210  -0.009  -0.764  0.00  0.00    +0.002 A 
ATOM     19  C   UNL     1       6.913   1.355  -0.738  0.00  0.00    +0.002 A 
ENDBRANCH   4   8
BRANCH   1   9
ATOM      9  C   UNL     1      -1.780  -0.112  -0.753  0.00  0.00    +0.085 C 
BRANCH   9  10
ATOM     10  C   UNL     1      -3.183  -0.105  -0.147  0.00  0.00    +0.020 C 
BRANCH  10  12
ATOM     12  C   UNL     1      -4.246   0.142  -1.220  0.00  0.00    +0.036 C 
BRANCH  12  16
ATOM     16  C   UNL     1      -5.638   0.114  -0.644  0.00  0.00    -0.047 A 
ATOM     20  C   UNL     1      -6.346  -1.086  -0.588  0.00  0.00    +0.003 A 
ATOM     21  C   UNL     1      -6.219   1.289  -0.166  0.00  0.00    +0.003 A 
ATOM     22  C   UNL     1      -7.635  -1.112  -0.054  0.00  0.00    +0.000 A 
ATOM     23  C   UNL     1      -7.507   1.263   0.368  0.00  0.00    +0.000 A 
ATOM     24  C   UNL     1      -8.215   0.063   0.424  0.00  0.00    +0.000 A 
ENDBRANCH  12  16
ENDBRANCH  10  12
ENDBRANCH   9  10
ENDBRANCH   1   9
TORSDOF 5
