REMARK  Name = 25388964
REMARK  5 active torsions:
REMARK  status: ('A' for Active; 'I' for Inactive)
REMARK    1  A    between atoms: N_4  and  C_22
REMARK    2  A    between atoms: N_5  and  C_16
REMARK    3  A    between atoms: C_9  and  C_15
REMARK    4  A    between atoms: C_10  and  C_16
REMARK    5  A    between atoms: C_18  and  C_19
REMARK                            x       y       z     vdW  Elec       q    Type
REMARK                         _______ _______ _______ _____ _____    ______ ____
ROOT
ATOM      3  N   UNL     1      -0.594   3.353  -0.593  0.00  0.00    -0.297 NA
ATOM      8  C   UNL     1       0.608   2.393   1.509  0.00  0.00    +0.002 C 
ATOM      9  C   UNL     1       1.614   2.561   0.336  0.00  0.00    +0.055 C 
ATOM     10  C   UNL     1      -1.354   2.193  -0.058  0.00  0.00    +0.074 C 
ATOM     11  C   UNL     1      -0.555   1.485   1.057  0.00  0.00    +0.024 C 
ATOM     12  C   UNL     1       0.792   2.940  -0.929  0.00  0.00    +0.094 C 
ATOM     13  C   UNL     1       0.011   3.789   1.787  0.00  0.00    +0.019 C 
ATOM     14  C   UNL     1      -0.525   4.382   0.472  0.00  0.00    +0.085 C 
ENDROOT
BRANCH   9  15
ATOM      4  N   UNL     1       3.844   1.638  -0.449  0.00  0.00    -0.271 N 
ATOM      6  N   UNL     1       4.559   0.511  -0.610  0.00  0.00    -0.176 NA
ATOM     15  C   UNL     1       2.599   1.432   0.068  0.00  0.00    +0.044 A 
ATOM     17  C   UNL     1       2.491   0.076   0.257  0.00  0.00    +0.048 A 
ATOM     18  C   UNL     1       3.727  -0.440  -0.177  0.00  0.00    +0.066 A 
ATOM     22  C   UNL     1       4.431   2.905  -0.821  0.00  0.00    +0.172 C 
BRANCH  18  19
ATOM     19  C   UNL     1       4.169  -1.892  -0.194  0.00  0.00    +0.040 C 
ATOM     20  C   UNL     1       3.289  -2.746  -1.123  0.00  0.00    +0.010 C 
ATOM     21  C   UNL     1       4.219  -2.492   1.223  0.00  0.00    +0.010 C 
ATOM     23  C   UNL     1       3.747  -4.204  -1.140  0.00  0.00    +0.001 C 
ATOM     24  C   UNL     1       4.674  -3.950   1.195  0.00  0.00    +0.001 C 
ATOM     25  C   UNL     1       3.805  -4.793   0.266  0.00  0.00    +0.000 C 
ENDBRANCH  18  19
ENDBRANCH   9  15
BRANCH  10  16
ATOM     16  C   UNL     1      -1.784   1.220  -1.158  0.00  0.00    +0.124 C 
BRANCH  16   5
ATOM      1  O   UNL     1      -4.589   1.298  -0.948  0.00  0.00    -0.253 OA
ATOM      2  O   UNL     1      -6.173  -3.162   0.492  0.00  0.00    -0.377 OA
ATOM      5  N   UNL     1      -2.619   0.169  -0.621  0.00  0.00    -0.298 N 
ATOM      7  N   UNL     1      -4.676  -0.816   0.002  0.00  0.00    -0.281 N 
ATOM     26  C   UNL     1      -4.002   0.286  -0.552  0.00  0.00    +0.302 C 
ATOM     27  C   UNL     1      -6.135  -0.775   0.120  0.00  0.00    +0.137 C 
ATOM     28  C   UNL     1      -4.050  -1.987   0.633  0.00  0.00    +0.137 C 
ATOM     29  C   UNL     1      -6.751  -2.107  -0.278  0.00  0.00    +0.179 C 
ATOM     30  C   UNL     1      -4.773  -3.269   0.234  0.00  0.00    +0.179 C 
ATOM     31  H   UNL     1      -2.139  -0.658  -0.297  0.00  0.00    +0.150 HD
ENDBRANCH  16   5
ENDBRANCH  10  16
TORSDOF 4
