REMARK  Name = 25388691
REMARK  4 active torsions:
REMARK  status: ('A' for Active; 'I' for Inactive)
REMARK    1  A    between atoms: N_6  and  C_14
REMARK    2  A    between atoms: C_23  and  C_26
REMARK    3  A    between atoms: C_25  and  C_27
REMARK    4  A    between atoms: C_30  and  C_33
REMARK                            x       y       z     vdW  Elec       q    Type
REMARK                         _______ _______ _______ _____ _____    ______ ____
ROOT
ATOM      4  O   UNL     1      -1.878  -1.248   1.786  0.00  0.00    -0.267 OA
ATOM      6  N   UNL     1       2.870  -1.325   0.173  0.00  0.00    -0.298 NA
ATOM      7  N   UNL     1      -0.165  -2.232   0.547  0.00  0.00    -0.311 N 
ATOM      9  C   UNL     1       1.968  -3.158   1.627  0.00  0.00    +0.024 C 
ATOM     10  C   UNL     1       1.677  -3.293  -0.801  0.00  0.00    +0.050 C 
ATOM     11  C   UNL     1       1.969  -4.121   0.447  0.00  0.00    +0.017 C 
ATOM     12  C   UNL     1       3.046  -2.072   1.424  0.00  0.00    +0.090 C 
ATOM     13  C   UNL     1       2.783  -2.228  -0.985  0.00  0.00    +0.094 C 
ATOM     15  C   UNL     1       0.559  -2.568   1.782  0.00  0.00    +0.130 C 
ATOM     16  C   UNL     1       0.315  -2.631  -0.702  0.00  0.00    +0.026 A 
ATOM     21  C   UNL     1      -0.416  -2.413  -1.806  0.00  0.00    +0.022 A 
ATOM     22  C   UNL     1      -1.407  -1.585   0.698  0.00  0.00    +0.259 A 
ATOM     23  C   UNL     1      -2.189  -1.323  -0.561  0.00  0.00    +0.047 A 
ATOM     24  C   UNL     1      -1.684  -1.743  -1.730  0.00  0.00    +0.015 A 
ENDROOT
BRANCH   6  14
ATOM      5  O   UNL     1       4.791   4.483   0.788  0.00  0.00    -0.276 OA
ATOM      8  N   UNL     1       4.814   2.404  -0.247  0.00  0.00    -0.302 N 
ATOM     14  C   UNL     1       3.938  -0.345  -0.007  0.00  0.00    +0.060 C 
ATOM     17  C   UNL     1       4.010   0.585   1.210  0.00  0.00    +0.038 C 
ATOM     18  C   UNL     1       3.699   0.465  -1.288  0.00  0.00    +0.038 C 
ATOM     19  C   UNL     1       5.058   1.677   1.001  0.00  0.00    +0.109 C 
ATOM     20  C   UNL     1       4.753   1.561  -1.448  0.00  0.00    +0.109 C 
ATOM     25  C   UNL     1       4.699   3.793  -0.230  0.00  0.00    +0.212 C 
ATOM     27  C   UNL     1       4.446   4.467  -1.555  0.00  0.00    +0.109 C 
ENDBRANCH   6  14
BRANCH  23  26
ATOM     26  C   UNL     1      -3.479  -0.612  -0.525  0.00  0.00    -0.012 A 
ATOM     28  C   UNL     1      -3.547   0.686  -0.019  0.00  0.00    +0.021 A 
ATOM     29  C   UNL     1      -4.633  -1.238  -0.995  0.00  0.00    +0.009 A 
ATOM     30  C   UNL     1      -4.769   1.359   0.016  0.00  0.00    +0.055 A 
ATOM     31  C   UNL     1      -5.855  -0.566  -0.960  0.00  0.00    +0.001 A 
ATOM     32  C   UNL     1      -5.923   0.732  -0.455  0.00  0.00    +0.012 A 
BRANCH  30  33
ATOM      1  F   UNL     1      -6.105   3.259   0.522  0.00  0.00    -0.166 F 
ATOM      2  F   UNL     1      -4.441   2.847   1.860  0.00  0.00    -0.166 F 
ATOM      3  F   UNL     1      -4.064   3.640  -0.123  0.00  0.00    -0.166 F 
ATOM     33  C   UNL     1      -4.840   2.746   0.557  0.00  0.00    +0.417 C 
ENDBRANCH  30  33
ENDBRANCH  23  26
TORSDOF 3
