REMARK  Name = 40778224
REMARK  14 active torsions:
REMARK  status: ('A' for Active; 'I' for Inactive)
REMARK    1  A    between atoms: O_2  and  C_13
REMARK    2  A    between atoms: O_3  and  C_14
REMARK    3  A    between atoms: O_5  and  C_26
REMARK    4  A    between atoms: O_5  and  C_35
REMARK    5  A    between atoms: N_7  and  C_17
REMARK    6  A    between atoms: N_8  and  C_24
REMARK    7  A    between atoms: N_11  and  C_27
REMARK    8  A    between atoms: N_11  and  C_32
REMARK    9  A    between atoms: N_11  and  C_33
REMARK   10  A    between atoms: C_12  and  C_16
REMARK   11  A    between atoms: C_15  and  C_17
REMARK   12  A    between atoms: C_16  and  C_18
REMARK   13  A    between atoms: C_25  and  C_27
REMARK   14  A    between atoms: C_32  and  C_34
REMARK                            x       y       z     vdW  Elec       q    Type
REMARK                         _______ _______ _______ _____ _____    ______ ____
ROOT
ATOM      1  O   UNL     1       3.391   1.314  -0.398  0.00  0.00    -0.366 OA
ATOM     12  C   UNL     1       3.017   2.700  -0.307  0.00  0.00    +0.159 C 
ATOM     13  C   UNL     1       4.079   3.356   0.559  0.00  0.00    +0.175 C 
ATOM     14  C   UNL     1       5.321   2.593   0.147  0.00  0.00    +0.176 C 
ATOM     15  C   UNL     1       4.782   1.177  -0.025  0.00  0.00    +0.171 C 
ENDROOT
BRANCH  13   2
ATOM      2  O   UNL     1       4.171   4.744   0.324  0.00  0.00    -0.387 OA
ATOM     41  H   UNL     1       4.940   5.073   0.820  0.00  0.00    +0.210 HD
ENDBRANCH  13   2
BRANCH  14   3
ATOM      3  O   UNL     1       5.783   3.049  -1.124  0.00  0.00    -0.387 OA
ATOM     42  H   UNL     1       6.557   2.511  -1.363  0.00  0.00    +0.210 HD
ENDBRANCH  14   3
BRANCH  12  16
ATOM     16  C   UNL     1       1.616   2.815   0.266  0.00  0.00    +0.130 C 
BRANCH  16  18
ATOM      4  O   UNL     1       0.981   2.234  -1.941  0.00  0.00    -0.276 OA
ATOM      6  N   UNL     1      -0.740   2.537  -0.412  0.00  0.00    -0.298 N 
ATOM      8  N   UNL     1      -3.171   1.404   0.463  0.00  0.00    -0.324 N 
ATOM     18  C   UNL     1       0.597   2.502  -0.800  0.00  0.00    +0.218 C 
ATOM     19  C   UNL     1      -1.234   2.851   0.930  0.00  0.00    +0.126 C 
ATOM     20  C   UNL     1      -1.796   2.271  -1.386  0.00  0.00    +0.126 C 
ATOM     21  C   UNL     1      -2.133   1.729   1.450  0.00  0.00    +0.124 C 
ATOM     22  C   UNL     1      -2.700   1.137  -0.905  0.00  0.00    +0.124 C 
BRANCH   8  24
ATOM     24  C   UNL     1      -4.347   0.770   0.880  0.00  0.00    +0.072 A 
ATOM     26  C   UNL     1      -5.548   0.986   0.205  0.00  0.00    +0.141 A 
ATOM     28  C   UNL     1      -4.310  -0.085   1.982  0.00  0.00    +0.027 A 
ATOM     29  C   UNL     1      -6.713   0.348   0.632  0.00  0.00    +0.047 A 
ATOM     30  C   UNL     1      -5.475  -0.724   2.408  0.00  0.00    +0.002 A 
ATOM     31  C   UNL     1      -6.676  -0.507   1.733  0.00  0.00    +0.004 A 
BRANCH  26   5
ATOM      5  O   UNL     1      -5.606   1.818  -0.873  0.00  0.00    -0.493 OA
ATOM     35  C   UNL     1      -5.888   3.192  -0.617  0.00  0.00    +0.277 C 
ENDBRANCH  26   5
ENDBRANCH   8  24
ENDBRANCH  16  18
ENDBRANCH  12  16
BRANCH  15  17
ATOM     17  C   UNL     1       4.843   0.356   1.255  0.00  0.00    +0.179 C 
BRANCH  17   7
ATOM      7  N   UNL     1       4.348  -1.050   1.042  0.00  0.00    -0.249 N 
ATOM      9  N   UNL     1       4.921  -1.848   0.128  0.00  0.00    -0.065 NA
ATOM     10  N   UNL     1       4.279  -3.011   0.160  0.00  0.00    -0.133 NA
ATOM     23  C   UNL     1       3.325  -1.677   1.685  0.00  0.00    +0.135 A 
ATOM     25  C   UNL     1       3.298  -2.922   1.109  0.00  0.00    +0.097 A 
BRANCH  25  27
ATOM     27  C   UNL     1       2.404  -4.052   1.388  0.00  0.00    +0.143 C 
BRANCH  27  11
ATOM     11  N   UNL     1       1.360  -4.234   0.365  0.00  0.00    -0.295 NA
ATOM     33  C   UNL     1       0.828  -5.590   0.427  0.00  0.00    +0.105 C 
BRANCH  11  32
ATOM     32  C   UNL     1       0.299  -3.250   0.551  0.00  0.00    +0.119 C 
BRANCH  32  34
ATOM     34  C   UNL     1      -0.488  -3.028  -0.713  0.00  0.00    -0.033 A 
ATOM     36  C   UNL     1      -0.092  -2.043  -1.617  0.00  0.00    +0.005 A 
ATOM     37  C   UNL     1      -1.614  -3.807  -0.979  0.00  0.00    +0.005 A 
ATOM     38  C   UNL     1      -0.821  -1.837  -2.788  0.00  0.00    +0.000 A 
ATOM     39  C   UNL     1      -2.344  -3.601  -2.150  0.00  0.00    +0.000 A 
ATOM     40  C   UNL     1      -1.947  -2.616  -3.054  0.00  0.00    +0.000 A 
ENDBRANCH  32  34
ENDBRANCH  11  32
ENDBRANCH  27  11
ENDBRANCH  25  27
ENDBRANCH  17   7
ENDBRANCH  15  17
TORSDOF 12
