REMARK  Name = 45361433
REMARK  10 active torsions:
REMARK  status: ('A' for Active; 'I' for Inactive)
REMARK    1  A    between atoms: O_1  and  C_10
REMARK    2  A    between atoms: N_4  and  C_14
REMARK    3  A    between atoms: N_5  and  C_23
REMARK    4  A    between atoms: C_7  and  C_17
REMARK    5  A    between atoms: C_9  and  C_19
REMARK    6  A    between atoms: C_12  and  C_18
REMARK    7  A    between atoms: C_18  and  C_20
REMARK    8  A    between atoms: C_18  and  C_21
REMARK    9  A    between atoms: C_22  and  C_26
REMARK   10  A    between atoms: C_34  and  C_35
REMARK                            x       y       z     vdW  Elec       q    Type
REMARK                         _______ _______ _______ _____ _____    ______ ____
ROOT
ATOM      7  C   UNL     1      -0.727   0.115   1.691  0.00  0.00    -0.027 C 
ATOM      8  C   UNL     1      -0.527   0.291   0.149  0.00  0.00    +0.028 C 
ATOM      9  C   UNL     1       0.977   0.588  -0.190  0.00  0.00    +0.012 C 
ATOM     10  C   UNL     1      -1.557   1.298  -0.441  0.00  0.00    +0.122 C 
ATOM     11  C   UNL     1      -2.193  -0.287   1.979  0.00  0.00    +0.007 C 
ATOM     12  C   UNL     1      -3.015   0.948  -0.062  0.00  0.00    +0.029 C 
ATOM     13  C   UNL     1       0.182  -1.032   2.189  0.00  0.00    +0.009 C 
ATOM     14  C   UNL     1       1.890  -0.534   0.381  0.00  0.00    +0.076 C 
ATOM     15  C   UNL     1      -3.202   0.716   1.437  0.00  0.00    +0.007 C 
ATOM     16  C   UNL     1       1.653  -0.812   1.865  0.00  0.00    +0.023 C 
ATOM     17  C   UNL     1      -0.400   1.406   2.484  0.00  0.00    +0.011 C 
ATOM     19  C   UNL     1       1.251   0.745  -1.695  0.00  0.00    +0.010 C 
ENDROOT
BRANCH  14   4
ATOM      3  O   UNL     1       4.004  -2.427  -0.049  0.00  0.00    -0.270 OA
ATOM      4  N   UNL     1       3.293  -0.234   0.189  0.00  0.00    -0.308 N 
ATOM     22  C   UNL     1       4.240  -1.223  -0.012  0.00  0.00    +0.244 C 
ATOM     36  H   UNL     1       3.577   0.731   0.322  0.00  0.00    +0.149 HD
BRANCH  22  26
ATOM     26  C   UNL     1       5.641  -0.753  -0.167  0.00  0.00    +0.037 A 
ATOM     30  C   UNL     1       6.701  -1.590   0.182  0.00  0.00    +0.014 A 
ATOM     31  C   UNL     1       5.897   0.526  -0.662  0.00  0.00    +0.014 A 
ATOM     32  C   UNL     1       8.016  -1.149   0.035  0.00  0.00    +0.019 A 
ATOM     33  C   UNL     1       7.212   0.967  -0.808  0.00  0.00    +0.019 A 
ATOM     34  C   UNL     1       8.271   0.130  -0.460  0.00  0.00    +0.052 A 
BRANCH  34  35
ATOM      6  N   UNL     1      10.713   0.949  -0.731  0.00  0.00    -0.191 NA
ATOM     35  C   UNL     1       9.619   0.582  -0.610  0.00  0.00    +0.099 C 
ENDBRANCH  34  35
ENDBRANCH  22  26
ENDBRANCH  14   4
BRANCH  10   1
ATOM      1  O   UNL     1      -1.488   1.269  -1.868  0.00  0.00    -0.391 OA
ATOM     37  H   UNL     1      -1.691   0.365  -2.163  0.00  0.00    +0.210 HD
ENDBRANCH  10   1
BRANCH  12  18
ATOM     18  C   UNL     1      -4.000   2.021  -0.542  0.00  0.00    +0.077 C 
ATOM     20  C   UNL     1      -3.650   3.369   0.078  0.00  0.00    +0.017 C 
BRANCH  18  21
ATOM      2  O   UNL     1      -6.168   2.289   0.503  0.00  0.00    -0.276 OA
ATOM      5  N   UNL     1      -5.777   0.389  -0.768  0.00  0.00    -0.312 N 
ATOM     21  C   UNL     1      -5.428   1.605  -0.201  0.00  0.00    +0.216 C 
ATOM     38  H   UNL     1      -5.108  -0.100  -1.353  0.00  0.00    +0.149 HD
BRANCH   5  23
ATOM     23  C   UNL     1      -7.079  -0.214  -0.586  0.00  0.00    +0.073 C 
ATOM     24  C   UNL     1      -7.492  -1.019  -1.823  0.00  0.00    +0.022 C 
ATOM     25  C   UNL     1      -7.112  -1.081   0.677  0.00  0.00    +0.022 C 
ATOM     27  C   UNL     1      -6.689  -2.311  -1.975  0.00  0.00    +0.002 C 
ATOM     28  C   UNL     1      -6.310  -2.373   0.521  0.00  0.00    +0.002 C 
ATOM     29  C   UNL     1      -6.746  -3.162  -0.710  0.00  0.00    +0.000 C 
ENDBRANCH   5  23
ENDBRANCH  18  21
ENDBRANCH  12  18
TORSDOF 7
