REMARK  Name = 11885067
REMARK  15 active torsions:
REMARK  status: ('A' for Active; 'I' for Inactive)
REMARK    1  A    between atoms: O_2  and  C_16
REMARK    2  A    between atoms: O_3  and  C_21
REMARK    3  A    between atoms: O_5  and  C_28
REMARK    4  A    between atoms: O_5  and  C_32
REMARK    5  A    between atoms: N_8  and  C_27
REMARK    6  A    between atoms: N_10  and  C_29
REMARK    7  A    between atoms: N_10  and  C_30
REMARK    8  A    between atoms: N_10  and  C_31
REMARK    9  A    between atoms: C_11  and  C_19
REMARK   10  A    between atoms: C_13  and  C_21
REMARK   11  A    between atoms: C_13  and  C_22
REMARK   12  A    between atoms: C_14  and  C_24
REMARK   13  A    between atoms: C_24  and  C_25
REMARK   14  A    between atoms: C_27  and  C_29
REMARK   15  A    between atoms: C_32  and  C_33
REMARK                            x       y       z     vdW  Elec       q    Type
REMARK                         _______ _______ _______ _____ _____    ______ ____
ROOT
ATOM      1  S   UNL     1      -0.309   3.166  -0.016  0.00  0.00    -0.057 S 
ATOM      6  O   UNL     1       3.670   0.745  -0.137  0.00  0.00    -0.226 OA
ATOM      7  N   UNL     1       0.697   0.783  -0.055  0.00  0.00    -0.229 NA
ATOM      9  N   UNL     1       2.255   2.621  -0.087  0.00  0.00    -0.230 N 
ATOM     11  C   UNL     1      -2.872  -0.591   0.436  0.00  0.00    -0.019 C 
ATOM     12  C   UNL     1      -3.534   0.627  -0.348  0.00  0.00    +0.011 C 
ATOM     13  C   UNL     1      -5.110   0.686  -0.382  0.00  0.00    +0.021 C 
ATOM     14  C   UNL     1      -1.345  -0.699  -0.019  0.00  0.00    +0.054 C 
ATOM     15  C   UNL     1      -3.593  -1.907   0.045  0.00  0.00    +0.010 C 
ATOM     16  C   UNL     1      -5.667  -0.721  -0.742  0.00  0.00    +0.123 C 
ATOM     17  C   UNL     1      -2.864   1.980   0.034  0.00  0.00    +0.049 C 
ATOM     18  C   UNL     1      -5.110  -1.832   0.141  0.00  0.00    +0.032 C 
ATOM     19  C   UNL     1      -2.941  -0.424   1.974  0.00  0.00    +0.012 C 
ATOM     20  C   UNL     1      -0.679   0.654  -0.008  0.00  0.00    +0.058 A 
ATOM     22  C   UNL     1      -5.557   1.662  -1.506  0.00  0.00    +0.016 C 
ATOM     23  C   UNL     1      -1.380   1.842  -0.003  0.00  0.00    +0.015 A 
ATOM     26  C   UNL     1       1.006   2.062  -0.056  0.00  0.00    +0.167 A 
ATOM     28  C   UNL     1       3.482   1.955  -0.124  0.00  0.00    +0.406 C 
ATOM     38  H   UNL     1       2.281   3.637  -0.082  0.00  0.00    +0.160 HD
ENDROOT
BRANCH  16   2
ATOM      2  O   UNL     1      -7.091  -0.735  -0.655  0.00  0.00    -0.391 OA
ATOM     35  H   UNL     1      -7.395  -1.616  -0.933  0.00  0.00    +0.210 HD
ENDBRANCH  16   2
BRANCH  28   5
ATOM      5  O   UNL     1       4.497   2.874  -0.147  0.00  0.00    -0.446 OA
BRANCH   5  32
ATOM     32  C   UNL     1       5.827   2.344  -0.187  0.00  0.00    +0.261 C 
BRANCH  32  33
ATOM     33  C   UNL     1       6.796   3.478  -0.207  0.00  0.00    +0.006 C 
ATOM     34  C   UNL     1       7.731   3.679   0.729  0.00  0.00    +0.007 C 
ENDBRANCH  32  33
ENDBRANCH   5  32
ENDBRANCH  28   5
BRANCH  13  21
ATOM     21  C   UNL     1      -5.759   1.220   0.914  0.00  0.00    +0.165 C 
BRANCH  21   3
ATOM      3  O   UNL     1      -7.157   1.222   0.727  0.00  0.00    -0.394 OA
ATOM     36  H   UNL     1      -7.558   1.569   1.542  0.00  0.00    +0.209 HD
ENDBRANCH  21   3
ENDBRANCH  13  21
BRANCH  14  24
ATOM     24  C   UNL     1      -0.520  -1.737   0.754  0.00  0.00    +0.106 C 
BRANCH  24  25
ATOM      4  O   UNL     1       0.882  -1.903  -1.211  0.00  0.00    -0.276 OA
ATOM      8  N   UNL     1       1.376  -3.188   0.662  0.00  0.00    -0.314 N 
ATOM     25  C   UNL     1       0.640  -2.260  -0.061  0.00  0.00    +0.214 C 
ATOM     37  H   UNL     1       1.097  -3.410   1.613  0.00  0.00    +0.149 HD
BRANCH   8  27
ATOM     27  C   UNL     1       2.542  -3.856   0.132  0.00  0.00    +0.119 C 
BRANCH  27  29
ATOM     29  C   UNL     1       3.810  -3.070   0.428  0.00  0.00    +0.102 C 
BRANCH  29  10
ATOM     10  N   UNL     1       4.976  -3.775  -0.089  0.00  0.00    -0.307 NA
ATOM     30  C   UNL     1       6.192  -3.336   0.598  0.00  0.00    +0.104 C 
ATOM     31  C   UNL     1       5.107  -3.567  -1.533  0.00  0.00    +0.104 C 
ENDBRANCH  29  10
ENDBRANCH  27  29
ENDBRANCH   8  27
ENDBRANCH  24  25
ENDBRANCH  14  24
TORSDOF 11
