REMARK  Name = 40779807
REMARK  5 active torsions:
REMARK  status: ('A' for Active; 'I' for Inactive)
REMARK    1  A    between atoms: N_3  and  C_15
REMARK    2  A    between atoms: N_4  and  C_16
REMARK    3  A    between atoms: C_9  and  C_15
REMARK    4  A    between atoms: C_10  and  C_16
REMARK    5  A    between atoms: C_21  and  C_23
REMARK                            x       y       z     vdW  Elec       q    Type
REMARK                         _______ _______ _______ _____ _____    ______ ____
ROOT
ATOM      2  N   UNL     1       2.016   3.297   0.201  0.00  0.00    -0.298 NA
ATOM      8  C   UNL     1       0.219   1.836  -0.984  0.00  0.00    -0.003 C 
ATOM      9  C   UNL     1      -0.349   2.471   0.307  0.00  0.00    +0.020 C 
ATOM     10  C   UNL     1       2.561   1.939  -0.070  0.00  0.00    +0.074 C 
ATOM     11  C   UNL     1       1.468   1.005  -0.636  0.00  0.00    +0.024 C 
ATOM     12  C   UNL     1       0.797   3.204   1.040  0.00  0.00    +0.089 C 
ATOM     13  C   UNL     1       0.679   2.996  -1.888  0.00  0.00    +0.019 C 
ATOM     14  C   UNL     1       1.638   3.904  -1.099  0.00  0.00    +0.085 C 
ENDROOT
BRANCH   9  15
ATOM     15  C   UNL     1      -1.046   1.463   1.217  0.00  0.00    +0.089 C 
BRANCH  15   3
ATOM      3  N   UNL     1      -2.130   0.780   0.512  0.00  0.00    -0.299 NA
ATOM      5  N   UNL     1      -4.711  -0.409   0.222  0.00  0.00    -0.297 N 
ATOM      6  N   UNL     1      -6.828  -0.338  -0.760  0.00  0.00    -0.223 NA
ATOM      7  N   UNL     1      -6.097  -2.272   0.477  0.00  0.00    -0.223 NA
ATOM     17  C   UNL     1      -3.335   1.617   0.485  0.00  0.00    +0.103 C 
ATOM     18  C   UNL     1      -2.430  -0.507   1.151  0.00  0.00    +0.103 C 
ATOM     19  C   UNL     1      -4.460   0.938  -0.299  0.00  0.00    +0.123 C 
ATOM     20  C   UNL     1      -3.523  -1.257   0.387  0.00  0.00    +0.123 C 
ATOM     22  C   UNL     1      -5.936  -1.036  -0.032  0.00  0.00    +0.218 A 
ATOM     26  C   UNL     1      -7.998  -0.971  -0.987  0.00  0.00    +0.116 A 
ATOM     27  C   UNL     1      -7.289  -2.846   0.213  0.00  0.00    +0.116 A 
ATOM     28  C   UNL     1      -8.287  -2.237  -0.520  0.00  0.00    +0.039 A 
ENDBRANCH  15   3
ENDBRANCH   9  15
BRANCH  10  16
ATOM     16  C   UNL     1       3.248   1.331   1.155  0.00  0.00    +0.123 C 
BRANCH  16   4
ATOM      1  O   UNL     1       5.936   0.950   0.220  0.00  0.00    -0.270 OA
ATOM      4  N   UNL     1       3.869   0.086   0.826  0.00  0.00    -0.310 N 
ATOM     21  C   UNL     1       5.185  -0.010   0.377  0.00  0.00    +0.244 C 
ATOM     32  H   UNL     1       3.285  -0.742   0.874  0.00  0.00    +0.149 HD
BRANCH  21  23
ATOM     23  C   UNL     1       5.674  -1.374   0.051  0.00  0.00    +0.037 A 
ATOM     24  C   UNL     1       6.692  -1.546  -0.887  0.00  0.00    +0.013 A 
ATOM     25  C   UNL     1       5.117  -2.484   0.686  0.00  0.00    +0.013 A 
ATOM     29  C   UNL     1       7.152  -2.827  -1.191  0.00  0.00    +0.001 A 
ATOM     30  C   UNL     1       5.576  -3.765   0.382  0.00  0.00    +0.001 A 
ATOM     31  C   UNL     1       6.594  -3.937  -0.556  0.00  0.00    +0.000 A 
ENDBRANCH  21  23
ENDBRANCH  16   4
ENDBRANCH  10  16
TORSDOF 5
