REMARK  Name = 75536898
REMARK  4 active torsions:
REMARK  status: ('A' for Active; 'I' for Inactive)
REMARK    1  A    between atoms: O_2  and  C_9
REMARK    2  A    between atoms: O_2  and  C_16
REMARK    3  A    between atoms: C_14  and  C_15
REMARK    4  A    between atoms: C_18  and  C_20
REMARK                            x       y       z     vdW  Elec       q    Type
REMARK                         _______ _______ _______ _____ _____    ______ ____
ROOT
ATOM      1  O   UNL     1      -1.141  -2.728  -1.009  0.00  0.00    -0.375 OA
ATOM      3  O   UNL     1       3.404  -2.166   0.518  0.00  0.00    -0.268 OA
ATOM      5  N   UNL     1       1.213  -1.334   0.520  0.00  0.00    -0.290 N 
ATOM      9  C   UNL     1      -1.121  -0.479  -0.063  0.00  0.00    +0.218 C 
ATOM     10  C   UNL     1       0.310  -0.183   0.397  0.00  0.00    +0.155 C 
ATOM     11  C   UNL     1       0.626  -2.665   0.684  0.00  0.00    +0.136 C 
ATOM     12  C   UNL     1      -1.181  -1.339  -1.323  0.00  0.00    +0.206 C 
ATOM     13  C   UNL     1       0.145  -3.220  -0.650  0.00  0.00    +0.179 C 
ATOM     14  C   UNL     1       2.612  -1.226   0.451  0.00  0.00    +0.268 C 
ENDROOT
BRANCH  14  15
ATOM      4  O   UNL     1       3.670   2.172   0.748  0.00  0.00    -0.359 OA
ATOM      6  N   UNL     1       2.981   1.056   1.206  0.00  0.00    -0.073 NA
ATOM     15  C   UNL     1       3.202   0.112   0.287  0.00  0.00    +0.168 A 
ATOM     17  C   UNL     1       4.016   0.569  -0.764  0.00  0.00    +0.080 A 
ATOM     18  C   UNL     1       4.283   1.870  -0.426  0.00  0.00    +0.135 A 
ATOM     20  C   UNL     1       5.062   2.943  -1.054  0.00  0.00    +0.089 C 
ENDBRANCH  14  15
BRANCH   9   2
ATOM      2  O   UNL     1      -1.736   0.782  -0.331  0.00  0.00    -0.468 OA
BRANCH   2  16
ATOM      7  N   UNL     1      -3.708  -0.229   0.371  0.00  0.00    -0.219 NA
ATOM      8  N   UNL     1      -5.074   2.175  -0.101  0.00  0.00    -0.256 NA
ATOM     16  C   UNL     1      -3.079   0.870  -0.092  0.00  0.00    +0.234 A 
ATOM     19  C   UNL     1      -3.750   2.050  -0.324  0.00  0.00    +0.177 A 
ATOM     21  C   UNL     1      -5.031  -0.105   0.594  0.00  0.00    +0.134 A 
ATOM     22  C   UNL     1      -5.702   1.076   0.362  0.00  0.00    +0.130 A 
ENDBRANCH   2  16
ENDBRANCH   9   2
TORSDOF 3
