REMARK  Name = 38027309
REMARK  10 active torsions:
REMARK  status: ('A' for Active; 'I' for Inactive)
REMARK    1  A    between atoms: N_3  and  C_12
REMARK    2  A    between atoms: N_4  and  C_19
REMARK    3  A    between atoms: C_5  and  C_9
REMARK    4  A    between atoms: C_6  and  C_12
REMARK    5  A    between atoms: C_8  and  C_14
REMARK    6  A    between atoms: C_9  and  C_17
REMARK    7  A    between atoms: C_9  and  C_18
REMARK    8  A    between atoms: C_10  and  C_21
REMARK    9  A    between atoms: C_13  and  C_20
REMARK   10  A    between atoms: C_14  and  C_24
REMARK                            x       y       z     vdW  Elec       q    Type
REMARK                         _______ _______ _______ _____ _____    ______ ____
ROOT
ATOM      5  C   UNL     1       1.550   0.693  -1.000  0.00  0.00    +0.000 C 
ATOM      6  C   UNL     1       2.956   0.528  -0.373  0.00  0.00    +0.032 C 
ATOM      7  C   UNL     1       0.958   2.064  -0.637  0.00  0.00    +0.012 C 
ATOM      8  C   UNL     1       0.840   2.262   0.886  0.00  0.00    +0.023 C 
ATOM     10  C   UNL     1       2.111   1.861   1.607  0.00  0.00    -0.073 C 
ATOM     11  C   UNL     1       3.052   1.097   1.024  0.00  0.00    -0.022 C 
ATOM     21  C   UNL     1       2.298   2.397   2.999  0.00  0.00    +0.039 C 
ENDROOT
BRANCH   5   9
ATOM      9  C   UNL     1       1.583   0.530  -2.523  0.00  0.00    -0.013 C 
ATOM     17  C   UNL     1       0.215   0.100  -3.042  0.00  0.00    +0.007 C 
ATOM     18  C   UNL     1       2.031   1.828  -3.187  0.00  0.00    +0.007 C 
ENDBRANCH   5   9
BRANCH   6  12
ATOM     12  C   UNL     1       3.384  -0.944  -0.354  0.00  0.00    +0.112 C 
BRANCH  12   3
ATOM      1  O   UNL     1       1.710  -3.217  -1.050  0.00  0.00    -0.276 OA
ATOM      3  N   UNL     1       2.545  -1.706   0.516  0.00  0.00    -0.315 N 
ATOM     20  C   UNL     1       1.774  -2.784   0.094  0.00  0.00    +0.216 C 
ATOM     27  H   UNL     1       2.544  -1.476   1.505  0.00  0.00    +0.149 HD
BRANCH  20  13
ATOM     13  C   UNL     1       0.974  -3.435   1.174  0.00  0.00    +0.075 C 
ATOM     15  C   UNL     1      -0.371  -2.872   1.527  0.00  0.00    +0.013 C 
ATOM     16  C   UNL     1      -0.273  -4.185   0.808  0.00  0.00    +0.013 C 
ENDBRANCH  20  13
ENDBRANCH  12   3
ENDBRANCH   6  12
BRANCH   8  14
ATOM     14  C   UNL     1      -0.371   1.509   1.449  0.00  0.00    +0.103 C 
BRANCH  14  24
ATOM      2  O   UNL     1      -1.862   2.979   0.237  0.00  0.00    -0.276 OA
ATOM      4  N   UNL     1      -2.537   0.808   0.720  0.00  0.00    -0.312 N 
ATOM     24  C   UNL     1      -1.651   1.876   0.733  0.00  0.00    +0.214 C 
ATOM     28  H   UNL     1      -2.251  -0.077   1.128  0.00  0.00    +0.149 HD
BRANCH   4  19
ATOM     19  C   UNL     1      -3.841   0.874   0.106  0.00  0.00    +0.073 C 
ATOM     22  C   UNL     1      -4.821  -0.089   0.763  0.00  0.00    +0.022 C 
ATOM     23  C   UNL     1      -3.813   0.394  -1.340  0.00  0.00    +0.022 C 
ATOM     25  C   UNL     1      -4.525  -1.439   0.115  0.00  0.00    +0.002 C 
ATOM     26  C   UNL     1      -3.917  -1.128  -1.252  0.00  0.00    +0.002 C 
ENDBRANCH   4  19
ENDBRANCH  14  24
ENDBRANCH   8  14
TORSDOF 7
