REMARK  Name = 26743266
REMARK  10 active torsions:
REMARK  status: ('A' for Active; 'I' for Inactive)
REMARK    1  A    between atoms: C_8  and  C_12
REMARK    2  A    between atoms: C_9  and  C_14
REMARK    3  A    between atoms: C_12  and  C_15
REMARK    4  A    between atoms: C_14  and  C_16
REMARK    5  A    between atoms: C_22  and  C_24
REMARK    6  A    between atoms: C_23  and  C_27
REMARK    7  A    between atoms: C_25  and  C_26
REMARK    8  A    between atoms: C_25  and  C_32
REMARK    9  A    between atoms: C_25  and  C_33
REMARK   10  A    between atoms: C_25  and  C_34
REMARK                            x       y       z     vdW  Elec       q    Type
REMARK                         _______ _______ _______ _____ _____    ______ ____
ROOT
ATOM      4  N   UNL     1       0.586   3.340   1.830  0.00  0.00    -0.316 NA
ATOM      8  C   UNL     1       2.171   2.130  -0.345  0.00  0.00    +0.004 C 
ATOM      9  C   UNL     1       0.684   1.779  -0.099  0.00  0.00    +0.012 C 
ATOM     10  C   UNL     1       2.458   3.527   0.230  0.00  0.00    +0.019 C 
ATOM     11  C   UNL     1       0.289   1.982   1.374  0.00  0.00    +0.085 C 
ATOM     13  C   UNL     1       2.003   3.666   1.682  0.00  0.00    +0.081 C 
ATOM     35  H   UNL     1       0.319   3.433   2.810  0.00  0.00    +0.122 HD
ENDROOT
BRANCH   8  12
ATOM     12  C   UNL     1       3.157   1.097   0.213  0.00  0.00    +0.100 C 
BRANCH  12  15
ATOM      1  O   UNL     1       4.620   2.063  -1.380  0.00  0.00    -0.276 OA
ATOM      3  O   UNL     1       8.079  -3.561   1.357  0.00  0.00    -0.276 OA
ATOM      5  N   UNL     1       5.500   0.368  -0.058  0.00  0.00    -0.298 N 
ATOM      6  N   UNL     1       7.180  -1.913  -0.009  0.00  0.00    -0.299 N 
ATOM     15  C   UNL     1       4.487   1.226  -0.483  0.00  0.00    +0.216 C 
ATOM     17  C   UNL     1       6.822   0.429  -0.686  0.00  0.00    +0.126 C 
ATOM     18  C   UNL     1       5.397  -0.585   1.055  0.00  0.00    +0.126 C 
ATOM     19  C   UNL     1       7.283  -0.959  -1.122  0.00  0.00    +0.126 C 
ATOM     20  C   UNL     1       5.857  -1.973   0.619  0.00  0.00    +0.126 C 
ATOM     23  C   UNL     1       8.193  -2.769   0.418  0.00  0.00    +0.213 C 
ATOM     27  C   UNL     1       9.499  -2.696  -0.332  0.00  0.00    +0.109 C 
ENDBRANCH  12  15
ENDBRANCH   8  12
BRANCH   9  14
ATOM     14  C   UNL     1       0.316   0.370  -0.564  0.00  0.00    +0.064 C 
BRANCH  14  16
ATOM      2  O   UNL     1      -3.023   0.298  -1.909  0.00  0.00    -0.354 OA
ATOM      7  N   UNL     1      -1.655   0.510  -2.026  0.00  0.00    -0.083 NA
ATOM     16  C   UNL     1      -1.159   0.244  -0.814  0.00  0.00    +0.085 A 
ATOM     21  C   UNL     1      -2.157  -0.138   0.099  0.00  0.00    +0.076 A 
ATOM     22  C   UNL     1      -3.310  -0.088  -0.639  0.00  0.00    +0.167 A 
BRANCH  22  24
ATOM     24  C   UNL     1      -4.694  -0.345  -0.366  0.00  0.00    +0.020 A 
ATOM     26  C   UNL     1      -7.387  -0.844   0.166  0.00  0.00    -0.042 A 
ATOM     28  C   UNL     1      -5.090  -0.747   0.910  0.00  0.00    +0.012 A 
ATOM     29  C   UNL     1      -5.645  -0.193  -1.375  0.00  0.00    +0.012 A 
ATOM     30  C   UNL     1      -6.436  -0.997   1.176  0.00  0.00    +0.005 A 
ATOM     31  C   UNL     1      -6.991  -0.442  -1.109  0.00  0.00    +0.005 A 
BRANCH  26  25
ATOM     25  C   UNL     1      -8.826  -1.112   0.451  0.00  0.00    -0.013 C 
ATOM     32  C   UNL     1      -9.046  -2.584   0.918  0.00  0.00    +0.015 C 
ATOM     33  C   UNL     1      -9.363  -0.175   1.577  0.00  0.00    +0.015 C 
ATOM     34  C   UNL     1      -9.799  -0.909  -0.758  0.00  0.00    +0.015 C 
ENDBRANCH  26  25
ENDBRANCH  22  24
ENDBRANCH  14  16
ENDBRANCH   9  14
TORSDOF 6
