REMARK  Name = 56774285
REMARK  10 active torsions:
REMARK  status: ('A' for Active; 'I' for Inactive)
REMARK    1  A    between atoms: O_3  and  C_21
REMARK    2  A    between atoms: N_4  and  C_9
REMARK    3  A    between atoms: N_6  and  C_18
REMARK    4  A    between atoms: C_7  and  C_12
REMARK    5  A    between atoms: C_7  and  C_13
REMARK    6  A    between atoms: C_8  and  C_11
REMARK    7  A    between atoms: C_11  and  C_14
REMARK    8  A    between atoms: C_17  and  C_19
REMARK    9  A    between atoms: C_18  and  C_20
REMARK   10  A    between atoms: C_19  and  C_21
REMARK                            x       y       z     vdW  Elec       q    Type
REMARK                         _______ _______ _______ _____ _____    ______ ____
ROOT
ATOM      7  C   UNL     1       0.809  -2.345  -0.190  0.00  0.00    -0.013 C 
ATOM      8  C   UNL     1       2.079  -1.507  -0.452  0.00  0.00    +0.004 C 
ATOM      9  C   UNL     1      -0.001  -1.060  -0.458  0.00  0.00    +0.081 C 
ATOM     10  C   UNL     1       1.255  -0.271  -0.034  0.00  0.00    +0.027 C 
ATOM     12  C   UNL     1       0.639  -2.861   1.227  0.00  0.00    +0.013 C 
ATOM     13  C   UNL     1       0.616  -3.474  -1.178  0.00  0.00    +0.013 C 
ENDROOT
BRANCH   9   4
ATOM      2  O   UNL     1      -2.783  -1.500  -1.096  0.00  0.00    -0.253 OA
ATOM      4  N   UNL     1      -1.160  -0.841   0.424  0.00  0.00    -0.296 N 
ATOM      6  N   UNL     1      -3.379  -0.800   1.036  0.00  0.00    -0.295 N 
ATOM     15  C   UNL     1      -2.472  -1.085   0.020  0.00  0.00    +0.300 C 
ATOM     27  H   UNL     1      -1.025  -0.491   1.369  0.00  0.00    +0.151 HD
ATOM     28  H   UNL     1      -3.029  -0.439   1.918  0.00  0.00    +0.151 HD
BRANCH   6  18
ATOM     18  C   UNL     1      -4.804  -0.966   0.878  0.00  0.00    +0.141 C 
BRANCH  18  20
ATOM     20  C   UNL     1      -5.461   0.279   0.357  0.00  0.00    -0.030 A 
ATOM     22  C   UNL     1      -5.937   1.242   1.248  0.00  0.00    +0.005 A 
ATOM     23  C   UNL     1      -5.596   0.474  -1.017  0.00  0.00    +0.005 A 
ATOM     24  C   UNL     1      -6.548   2.399   0.764  0.00  0.00    +0.000 A 
ATOM     25  C   UNL     1      -6.206   1.631  -1.501  0.00  0.00    +0.000 A 
ATOM     26  C   UNL     1      -6.682   2.593  -0.611  0.00  0.00    +0.000 A 
ENDBRANCH  18  20
ENDBRANCH   6  18
ENDBRANCH   9   4
BRANCH   8  11
ATOM     11  C   UNL     1       3.284  -1.789   0.414  0.00  0.00    +0.063 C 
BRANCH  11  14
ATOM      1  O   UNL     1       6.037   0.310  -0.604  0.00  0.00    -0.359 OA
ATOM      5  N   UNL     1       5.261  -0.838  -0.709  0.00  0.00    -0.083 NA
ATOM     14  C   UNL     1       4.324  -0.709   0.234  0.00  0.00    +0.084 A 
ATOM     16  C   UNL     1       4.457   0.488   0.959  0.00  0.00    +0.071 A 
ATOM     17  C   UNL     1       5.549   1.092   0.393  0.00  0.00    +0.140 A 
BRANCH  17  19
ATOM     19  C   UNL     1       6.255   2.354   0.641  0.00  0.00    +0.105 C 
BRANCH  19  21
ATOM     21  C   UNL     1       5.929   3.461  -0.381  0.00  0.00    +0.163 C 
BRANCH  21   3
ATOM      3  O   UNL     1       4.532   3.720  -0.363  0.00  0.00    -0.395 OA
ATOM     29  H   UNL     1       4.364   4.421  -1.015  0.00  0.00    +0.209 HD
ENDBRANCH  21   3
ENDBRANCH  19  21
ENDBRANCH  17  19
ENDBRANCH  11  14
ENDBRANCH   8  11
TORSDOF 8
