REMARK  Name = 11865680
REMARK  8 active torsions:
REMARK  status: ('A' for Active; 'I' for Inactive)
REMARK    1  A    between atoms: O_1  and  C_9
REMARK    2  A    between atoms: O_2  and  C_10
REMARK    3  A    between atoms: N_6  and  C_11
REMARK    4  A    between atoms: N_7  and  C_17
REMARK    5  A    between atoms: C_13  and  C_15
REMARK    6  A    between atoms: C_16  and  C_19
REMARK    7  A    between atoms: C_17  and  C_18
REMARK    8  A    between atoms: C_18  and  C_20
REMARK                            x       y       z     vdW  Elec       q    Type
REMARK                         _______ _______ _______ _____ _____    ______ ____
ROOT
ATOM      9  C   UNL     1      -2.251  -0.825  -1.104  0.00  0.00    +0.167 C 
ATOM     10  C   UNL     1      -1.380  -2.086  -1.049  0.00  0.00    +0.149 C 
ATOM     11  C   UNL     1      -2.284  -0.102   0.256  0.00  0.00    +0.127 C 
ATOM     12  C   UNL     1       0.051  -1.781  -0.573  0.00  0.00    +0.074 C 
ATOM     13  C   UNL     1       0.109  -0.753   0.520  0.00  0.00    +0.015 C 
ATOM     14  C   UNL     1      -0.931   0.000   0.908  0.00  0.00    +0.006 C 
ENDROOT
BRANCH  11   6
ATOM      4  O   UNL     1      -5.079   0.651   0.478  0.00  0.00    -0.276 OA
ATOM      6  N   UNL     1      -2.847   1.222   0.141  0.00  0.00    -0.307 N 
ATOM     16  C   UNL     1      -4.202   1.484   0.263  0.00  0.00    +0.210 C 
ATOM     19  C   UNL     1      -4.516   2.950   0.126  0.00  0.00    +0.109 C 
ATOM     21  H   UNL     1      -2.220   1.992  -0.076  0.00  0.00    +0.149 HD
ENDBRANCH  11   6
BRANCH  13  15
ATOM      3  O   UNL     1       1.401  -0.224   2.410  0.00  0.00    -0.271 OA
ATOM      7  N   UNL     1       2.483  -0.824   0.435  0.00  0.00    -0.311 N 
ATOM     15  C   UNL     1       1.379  -0.570   1.230  0.00  0.00    +0.240 C 
ATOM     24  H   UNL     1       2.378  -1.067  -0.543  0.00  0.00    +0.149 HD
BRANCH   7  17
ATOM     17  C   UNL     1       3.842  -0.709   0.912  0.00  0.00    +0.113 C 
BRANCH  17  18
ATOM     18  C   UNL     1       4.409   0.689   0.704  0.00  0.00    +0.114 C 
BRANCH  18  20
ATOM      5  O   UNL     1       4.091   0.400  -1.686  0.00  0.00    -0.276 OA
ATOM      8  N   UNL     1       4.973   2.377  -0.916  0.00  0.00    -0.329 N 
ATOM     20  C   UNL     1       4.457   1.109  -0.754  0.00  0.00    +0.212 C 
ATOM     25  H   UNL     1       5.274   2.945  -0.130  0.00  0.00    +0.145 HD
ATOM     26  H   UNL     1       5.069   2.788  -1.839  0.00  0.00    +0.145 HD
ENDBRANCH  18  20
ENDBRANCH  17  18
ENDBRANCH   7  17
ENDBRANCH  13  15
BRANCH   9   1
ATOM      1  O   UNL     1      -1.726   0.053  -2.102  0.00  0.00    -0.387 OA
ATOM     22  H   UNL     1      -1.745  -0.423  -2.950  0.00  0.00    +0.210 HD
ENDBRANCH   9   1
BRANCH  10   2
ATOM      2  O   UNL     1      -1.980  -3.061  -0.199  0.00  0.00    -0.389 OA
ATOM     23  H   UNL     1      -2.872  -3.240  -0.543  0.00  0.00    +0.210 HD
ENDBRANCH  10   2
TORSDOF 7
