REMARK  Name = 75536039
REMARK  8 active torsions:
REMARK  status: ('A' for Active; 'I' for Inactive)
REMARK    1  A    between atoms: O_5  and  C_21
REMARK    2  A    between atoms: O_5  and  C_24
REMARK    3  A    between atoms: O_6  and  C_30
REMARK    4  A    between atoms: O_6  and  C_31
REMARK    5  A    between atoms: C_13  and  C_18
REMARK    6  A    between atoms: C_19  and  C_21
REMARK    7  A    between atoms: C_22  and  C_23
REMARK    8  A    between atoms: C_24  and  C_30
REMARK                            x       y       z     vdW  Elec       q    Type
REMARK                         _______ _______ _______ _____ _____    ______ ____
ROOT
ATOM      4  O   UNL     1      -2.932  -0.271  -1.714  0.00  0.00    -0.273 OA
ATOM      8  N   UNL     1      -1.428   0.946  -0.414  0.00  0.00    -0.282 N 
ATOM      9  N   UNL     1       0.050   3.739   1.569  0.00  0.00    -0.347 N 
ATOM     10  N   UNL     1       0.869   4.412  -0.398  0.00  0.00    -0.240 NA
ATOM     13  C   UNL     1      -0.402   1.004  -1.511  0.00  0.00    +0.171 C 
ATOM     14  C   UNL     1       0.039   2.472  -1.800  0.00  0.00    +0.089 C 
ATOM     15  C   UNL     1      -1.075   1.552   0.900  0.00  0.00    +0.163 C 
ATOM     16  C   UNL     1       0.206   3.225  -0.538  0.00  0.00    +0.066 A 
ATOM     17  C   UNL     1      -0.311   2.791   0.658  0.00  0.00    +0.056 A 
ATOM     19  C   UNL     1      -2.618   0.240  -0.636  0.00  0.00    +0.242 C 
ATOM     20  C   UNL     1       0.758   4.695   0.884  0.00  0.00    +0.197 A 
ATOM     32  H   UNL     1      -0.160   3.741   2.558  0.00  0.00    +0.167 HD
ENDROOT
BRANCH  13  18
ATOM      3  O   UNL     1       0.493  -1.276  -1.684  0.00  0.00    -0.336 OA
ATOM     11  N   UNL     1       1.879   0.171  -0.682  0.00  0.00    -0.190 NA
ATOM     12  N   UNL     1       1.640  -2.005  -1.346  0.00  0.00    -0.056 NA
ATOM     18  C   UNL     1       0.717  -0.005  -1.258  0.00  0.00    +0.249 A 
ATOM     22  C   UNL     1       2.409  -1.084  -0.759  0.00  0.00    +0.202 A 
BRANCH  22  23
ATOM      1 CL   UNL     1       6.673   0.572   1.606  0.00  0.00    -0.081 Cl
ATOM      2  F   UNL     1       7.466  -2.261   1.244  0.00  0.00    -0.204 F 
ATOM     23  C   UNL     1       3.713  -1.384  -0.240  0.00  0.00    +0.024 A 
ATOM     25  C   UNL     1       4.472  -0.380   0.361  0.00  0.00    +0.034 A 
ATOM     26  C   UNL     1       4.221  -2.679  -0.338  0.00  0.00    +0.014 A 
ATOM     27  C   UNL     1       5.740  -0.671   0.864  0.00  0.00    +0.077 A 
ATOM     28  C   UNL     1       5.489  -2.970   0.166  0.00  0.00    +0.040 A 
ATOM     29  C   UNL     1       6.248  -1.966   0.767  0.00  0.00    +0.142 A 
ENDBRANCH  22  23
ENDBRANCH  13  18
BRANCH  19  21
ATOM     21  C   UNL     1      -3.557   0.116   0.539  0.00  0.00    +0.256 C 
BRANCH  21   5
ATOM      5  O   UNL     1      -4.684  -0.590   0.079  0.00  0.00    -0.359 OA
BRANCH   5  24
ATOM     24  C   UNL     1      -5.656  -0.774   1.107  0.00  0.00    +0.280 C 
BRANCH  24  30
ATOM      7  O   UNL     1      -6.922  -1.907  -0.623  0.00  0.00    -0.248 OA
ATOM     30  C   UNL     1      -6.826  -1.534   0.538  0.00  0.00    +0.333 C 
BRANCH  30   6
ATOM      6  O   UNL     1      -7.748  -1.732   1.525  0.00  0.00    -0.466 OA
ATOM     31  C   UNL     1      -8.925  -2.446   1.134  0.00  0.00    +0.280 C 
ENDBRANCH  30   6
ENDBRANCH  24  30
ENDBRANCH   5  24
ENDBRANCH  21   5
ENDBRANCH  19  21
TORSDOF 7
