REMARK  Name = 45361000
REMARK  10 active torsions:
REMARK  status: ('A' for Active; 'I' for Inactive)
REMARK    1  A    between atoms: O_6  and  C_27
REMARK    2  A    between atoms: O_6  and  C_32
REMARK    3  A    between atoms: N_7  and  C_19
REMARK    4  A    between atoms: N_8  and  C_21
REMARK    5  A    between atoms: N_10  and  C_30
REMARK    6  A    between atoms: C_16  and  C_20
REMARK    7  A    between atoms: C_19  and  C_23
REMARK    8  A    between atoms: C_20  and  C_22
REMARK    9  A    between atoms: C_22  and  C_24
REMARK   10  A    between atoms: C_30  and  C_31
REMARK                            x       y       z     vdW  Elec       q    Type
REMARK                         _______ _______ _______ _____ _____    ______ ____
ROOT
ATOM      4  O   UNL     1       1.454  -2.316  -0.818  0.00  0.00    -0.274 OA
ATOM      7  N   UNL     1       2.763  -0.239   0.309  0.00  0.00    -0.286 NA
ATOM      8  N   UNL     1      -0.743   0.764   0.004  0.00  0.00    -0.296 NA
ATOM      9  N   UNL     1      -0.439  -2.070   0.445  0.00  0.00    -0.312 N 
ATOM     12  C   UNL     1       0.604   0.829   0.613  0.00  0.00    +0.084 C 
ATOM     13  C   UNL     1       1.396  -0.499   0.801  0.00  0.00    +0.161 C 
ATOM     14  C   UNL     1       1.606   1.691  -0.177  0.00  0.00    +0.036 C 
ATOM     15  C   UNL     1       2.953   1.207   0.316  0.00  0.00    +0.087 C 
ATOM     16  C   UNL     1      -1.744   0.004   0.803  0.00  0.00    +0.074 C 
ATOM     17  C   UNL     1       0.832  -1.700   0.047  0.00  0.00    +0.232 C 
ATOM     18  C   UNL     1      -1.228  -1.319   1.401  0.00  0.00    +0.123 C 
ATOM     21  C   UNL     1      -1.248   2.116  -0.293  0.00  0.00    +0.105 C 
ATOM     37  H   UNL     1      -0.864  -2.877  -0.001  0.00  0.00    +0.149 HD
ENDROOT
BRANCH   7  19
ATOM     19  C   UNL     1       3.792  -0.932   1.072  0.00  0.00    +0.120 C 
BRANCH  19  23
ATOM     23  C   UNL     1       5.068  -1.082   0.286  0.00  0.00    -0.030 A 
ATOM     25  C   UNL     1       6.158  -0.258   0.562  0.00  0.00    +0.051 A 
ATOM     26  C   UNL     1       5.158  -2.046  -0.719  0.00  0.00    +0.005 A 
ATOM     27  C   UNL     1       7.340  -0.397  -0.166  0.00  0.00    +0.130 A 
ATOM     28  C   UNL     1       6.339  -2.184  -1.448  0.00  0.00    +0.004 A 
ATOM     29  C   UNL     1       7.430  -1.360  -1.171  0.00  0.00    +0.046 A 
BRANCH  27   6
ATOM      6  O   UNL     1       8.403   0.409   0.103  0.00  0.00    -0.406 OA
BRANCH   6  32
ATOM      1  F   UNL     1       7.325   2.103  -0.992  0.00  0.00    -0.133 F 
ATOM      2  F   UNL     1       9.418   2.358  -0.414  0.00  0.00    -0.133 F 
ATOM      3  F   UNL     1       7.872   2.381   1.131  0.00  0.00    -0.133 F 
ATOM     32  C   UNL     1       8.237   1.815  -0.038  0.00  0.00    +0.575 C 
ENDBRANCH   6  32
ENDBRANCH  27   6
ENDBRANCH  19  23
ENDBRANCH   7  19
BRANCH  16  20
ATOM     20  C   UNL     1      -2.982  -0.328  -0.058  0.00  0.00    +0.029 C 
BRANCH  20  22
ATOM     22  C   UNL     1      -4.202  -0.542   0.818  0.00  0.00    +0.097 C 
BRANCH  22  24
ATOM      5  O   UNL     1      -5.421  -0.950  -1.234  0.00  0.00    -0.276 OA
ATOM     10  N   UNL     1      -6.549  -1.068   0.791  0.00  0.00    -0.311 N 
ATOM     24  C   UNL     1      -5.433  -0.872  -0.009  0.00  0.00    +0.213 C 
ATOM     38  H   UNL     1      -6.468  -0.965   1.799  0.00  0.00    +0.149 HD
BRANCH  10  30
ATOM     30  C   UNL     1      -7.844  -1.392   0.242  0.00  0.00    +0.141 C 
BRANCH  30  31
ATOM     11  N   UNL     1      -9.505   1.400  -1.701  0.00  0.00    -0.263 NA
ATOM     31  C   UNL     1      -8.650  -0.157  -0.061  0.00  0.00    -0.012 A 
ATOM     33  C   UNL     1      -9.268   0.563   0.956  0.00  0.00    +0.008 A 
ATOM     34  C   UNL     1      -8.798   0.299  -1.361  0.00  0.00    +0.115 A 
ATOM     35  C   UNL     1     -10.004   1.701   0.646  0.00  0.00    +0.020 A 
ATOM     36  C   UNL     1     -10.091   2.074  -0.686  0.00  0.00    +0.111 A 
ENDBRANCH  30  31
ENDBRANCH  10  30
ENDBRANCH  22  24
ENDBRANCH  20  22
ENDBRANCH  16  20
TORSDOF 9
