REMARK  Name = 11882059
REMARK  10 active torsions:
REMARK  status: ('A' for Active; 'I' for Inactive)
REMARK    1  A    between atoms: S_1  and  C_21
REMARK    2  A    between atoms: S_1  and  C_28
REMARK    3  A    between atoms: N_10  and  C_14
REMARK    4  A    between atoms: N_11  and  C_20
REMARK    5  A    between atoms: N_12  and  C_26
REMARK    6  A    between atoms: C_15  and  C_18
REMARK    7  A    between atoms: C_19  and  C_21
REMARK    8  A    between atoms: C_20  and  C_23
REMARK    9  A    between atoms: C_20  and  C_24
REMARK   10  A    between atoms: C_23  and  C_25
REMARK                            x       y       z     vdW  Elec       q    Type
REMARK                         _______ _______ _______ _____ _____    ______ ____
ROOT
ATOM      6  O   UNL     1      -2.382   1.838  -1.818  0.00  0.00    -0.275 OA
ATOM      9  N   UNL     1      -1.292   2.386   0.149  0.00  0.00    -0.287 N 
ATOM     14  C   UNL     1       0.259   1.240   1.530  0.00  0.00    +0.105 C 
ATOM     15  C   UNL     1      -0.801   1.044   0.446  0.00  0.00    +0.182 C 
ATOM     16  C   UNL     1      -0.192   2.520   2.240  0.00  0.00    +0.043 C 
ATOM     17  C   UNL     1      -0.809   3.356   1.127  0.00  0.00    +0.110 C 
ATOM     19  C   UNL     1      -1.989   2.683  -1.012  0.00  0.00    +0.226 C 
ENDROOT
BRANCH  14  10
ATOM      7  O   UNL     1       2.187  -0.828   1.076  0.00  0.00    -0.252 OA
ATOM     10  N   UNL     1       1.571   1.396   0.948  0.00  0.00    -0.294 N 
ATOM     12  N   UNL     1       3.644   0.780   0.180  0.00  0.00    -0.267 N 
ATOM     22  C   UNL     1       2.455   0.329   0.761  0.00  0.00    +0.304 C 
ATOM     36  H   UNL     1       1.841   2.311   0.600  0.00  0.00    +0.151 HD
ATOM     38  H   UNL     1       3.709   1.775  -0.019  0.00  0.00    +0.156 HD
BRANCH  12  26
ATOM      3  F   UNL     1       5.891   1.960  -0.972  0.00  0.00    -0.203 F 
ATOM      4  F   UNL     1       8.107  -2.215  -1.178  0.00  0.00    -0.205 F 
ATOM     26  C   UNL     1       4.784   0.018  -0.168  0.00  0.00    +0.070 A 
ATOM     29  C   UNL     1       5.893   0.639  -0.743  0.00  0.00    +0.147 A 
ATOM     30  C   UNL     1       4.797  -1.357   0.065  0.00  0.00    +0.029 A 
ATOM     33  C   UNL     1       7.015  -0.116  -1.084  0.00  0.00    +0.078 A 
ATOM     34  C   UNL     1       5.919  -2.112  -0.277  0.00  0.00    +0.040 A 
ATOM     35  C   UNL     1       7.028  -1.491  -0.851  0.00  0.00    +0.126 A 
ENDBRANCH  12  26
ENDBRANCH  14  10
BRANCH  15  18
ATOM      5  O   UNL     1      -2.888   0.803   1.582  0.00  0.00    -0.274 OA
ATOM     11  N   UNL     1      -1.877  -1.085   0.669  0.00  0.00    -0.302 N 
ATOM     18  C   UNL     1      -1.975   0.265   0.960  0.00  0.00    +0.236 C 
ATOM     37  H   UNL     1      -1.034  -1.429   0.218  0.00  0.00    +0.150 HD
BRANCH  11  20
ATOM     20  C   UNL     1      -2.868  -2.055   1.074  0.00  0.00    +0.163 C 
BRANCH  20  24
ATOM      8  O   UNL     1      -1.345  -2.631   2.878  0.00  0.00    -0.274 OA
ATOM     13  N   UNL     1      -3.605  -2.721   3.278  0.00  0.00    -0.328 N 
ATOM     24  C   UNL     1      -2.500  -2.509   2.480  0.00  0.00    +0.231 C 
ATOM     39  H   UNL     1      -3.500  -3.011   4.245  0.00  0.00    +0.145 HD
ATOM     40  H   UNL     1      -4.555  -2.613   2.937  0.00  0.00    +0.145 HD
ENDBRANCH  20  24
BRANCH  20  23
ATOM     23  C   UNL     1      -2.928  -3.257   0.123  0.00  0.00    +0.074 C 
BRANCH  23  25
ATOM      2  S   UNL     1      -5.056  -3.930  -1.544  0.00  0.00    -0.102 S 
ATOM     25  C   UNL     1      -3.709  -2.956  -1.134  0.00  0.00    -0.008 A 
ATOM     27  C   UNL     1      -3.492  -1.958  -2.059  0.00  0.00    +0.011 A 
ATOM     31  C   UNL     1      -4.445  -1.994  -3.118  0.00  0.00    +0.008 A 
ATOM     32  C   UNL     1      -5.353  -3.018  -2.962  0.00  0.00    +0.045 A 
ENDBRANCH  23  25
ENDBRANCH  20  23
ENDBRANCH  11  20
ENDBRANCH  15  18
BRANCH  19  21
ATOM     21  C   UNL     1      -2.264   4.147  -1.249  0.00  0.00    +0.164 C 
BRANCH  21   1
ATOM      1  S   UNL     1      -3.847   4.535  -0.490  0.00  0.00    -0.155 S 
ATOM     28  C   UNL     1      -3.933   6.294  -0.907  0.00  0.00    +0.085 C 
ENDBRANCH  21   1
ENDBRANCH  19  21
TORSDOF 9
