REMARK  Name = 11867158
REMARK  6 active torsions:
REMARK  status: ('A' for Active; 'I' for Inactive)
REMARK    1  A    between atoms: S_1  and  N_10
REMARK    2  A    between atoms: S_1  and  C_24
REMARK    3  A    between atoms: O_4  and  C_23
REMARK    4  A    between atoms: N_10  and  C_21
REMARK    5  A    between atoms: C_20  and  C_23
REMARK    6  A    between atoms: C_29  and  C_30
REMARK                            x       y       z     vdW  Elec       q    Type
REMARK                         _______ _______ _______ _____ _____    ______ ____
ROOT
ATOM      2  O   UNL     1      -0.195  -1.925  -1.948  0.00  0.00    -0.266 OA
ATOM      3  O   UNL     1      -2.183   2.557   0.748  0.00  0.00    -0.263 OA
ATOM      8  N   UNL     1      -1.669  -1.617  -0.153  0.00  0.00    -0.310 N 
ATOM      9  N   UNL     1      -3.700   0.800   0.476  0.00  0.00    -0.291 N 
ATOM     11  C   UNL     1      -4.207  -1.475  -0.439  0.00  0.00    +0.027 C 
ATOM     12  C   UNL     1      -3.219  -1.253   1.801  0.00  0.00    +0.054 C 
ATOM     13  C   UNL     1      -4.261  -2.014   0.985  0.00  0.00    +0.018 C 
ATOM     14  C   UNL     1      -2.829  -1.789  -1.035  0.00  0.00    +0.130 C 
ATOM     15  C   UNL     1      -4.516   0.034  -0.467  0.00  0.00    +0.113 C 
ATOM     16  C   UNL     1      -3.582   0.242   1.825  0.00  0.00    +0.118 C 
ATOM     17  C   UNL     1      -1.826  -1.437   1.227  0.00  0.00    +0.027 A 
ATOM     18  C   UNL     1      -0.751  -1.401   2.036  0.00  0.00    +0.024 A 
ATOM     19  C   UNL     1      -0.396  -1.749  -0.748  0.00  0.00    +0.274 A 
ATOM     20  C   UNL     1      -3.159   2.053   0.205  0.00  0.00    +0.324 C 
ATOM     21  C   UNL     1       0.750  -1.676   0.192  0.00  0.00    +0.112 A 
ATOM     22  C   UNL     1       0.580  -1.523   1.506  0.00  0.00    +0.031 A 
ENDROOT
BRANCH  20  23
ATOM      5  O   UNL     1      -4.703   2.699  -1.473  0.00  0.00    -0.240 OA
ATOM     23  C   UNL     1      -3.726   2.980  -0.808  0.00  0.00    +0.392 C 
BRANCH  23   4
ATOM      4  O   UNL     1      -3.000   4.105  -0.834  0.00  0.00    -0.474 OA
ATOM     32  H   UNL     1      -3.339   4.751  -1.489  0.00  0.00    +0.296 HD
ENDBRANCH  23   4
ENDBRANCH  20  23
BRANCH  21  10
ATOM     10  N   UNL     1       2.067  -1.787  -0.287  0.00  0.00    -0.211 N 
ATOM     31  H   UNL     1       2.746  -2.004   0.456  0.00  0.00    +0.174 HD
BRANCH  10   1
ATOM      1  S   UNL     1       2.585  -0.615  -1.393  0.00  0.00    +0.072 S 
ATOM      6  O   UNL     1       3.126  -1.261  -2.573  0.00  0.00    -0.150 OA
ATOM      7  O   UNL     1       1.572   0.415  -1.523  0.00  0.00    -0.150 OA
BRANCH   1  24
ATOM     24  C   UNL     1       3.945   0.092  -0.510  0.00  0.00    +0.109 A 
ATOM     25  C   UNL     1       5.210  -0.444  -0.677  0.00  0.00    +0.029 A 
ATOM     26  C   UNL     1       3.719   1.167   0.332  0.00  0.00    +0.029 A 
ATOM     27  C   UNL     1       6.282   0.112   0.019  0.00  0.00    +0.005 A 
ATOM     28  C   UNL     1       4.792   1.723   1.028  0.00  0.00    +0.005 A 
ATOM     29  C   UNL     1       6.074   1.196   0.872  0.00  0.00    -0.050 A 
ATOM     30  C   UNL     1       7.221   1.791   1.616  0.00  0.00    +0.044 C 
ENDBRANCH   1  24
ENDBRANCH  10   1
ENDBRANCH  21  10
TORSDOF 5
