REMARK  Name = 56775191
REMARK  2 active torsions:
REMARK  status: ('A' for Active; 'I' for Inactive)
REMARK    1  A    between atoms: N_6  and  C_14
REMARK    2  A    between atoms: C_15  and  C_18
REMARK                            x       y       z     vdW  Elec       q    Type
REMARK                         _______ _______ _______ _____ _____    ______ ____
ROOT
ATOM      1  O   UNL     1      -0.348   2.979   0.607  0.00  0.00    -0.364 OA
ATOM      2  O   UNL     1      -3.620   1.655   1.176  0.00  0.00    -0.273 OA
ATOM      3  O   UNL     1       4.056   1.470  -0.630  0.00  0.00    -0.267 OA
ATOM      5  N   UNL     1       1.770   1.114  -0.436  0.00  0.00    -0.291 N 
ATOM      6  N   UNL     1      -1.858   0.741  -0.092  0.00  0.00    -0.262 N 
ATOM      8  C   UNL     1      -0.579   1.024  -0.765  0.00  0.00    +0.129 C 
ATOM      9  C   UNL     1      -0.131   2.485  -0.707  0.00  0.00    +0.158 C 
ATOM     10  C   UNL     1       0.604   0.296  -0.112  0.00  0.00    +0.133 C 
ATOM     11  C   UNL     1       1.369   2.411  -0.965  0.00  0.00    +0.141 C 
ATOM     12  C   UNL     1      -1.727   3.030   0.870  0.00  0.00    +0.256 C 
ATOM     13  C   UNL     1      -2.489   1.726   0.688  0.00  0.00    +0.246 C 
ATOM     15  C   UNL     1       3.103   0.748  -0.345  0.00  0.00    +0.285 C 
ENDROOT
BRANCH   6  14
ATOM     14  C   UNL     1      -2.412  -0.597  -0.224  0.00  0.00    +0.037 A 
ATOM     16  C   UNL     1      -3.158  -1.148   0.818  0.00  0.00    +0.023 A 
ATOM     17  C   UNL     1      -2.198  -1.328  -1.392  0.00  0.00    +0.023 A 
ATOM     19  C   UNL     1      -3.689  -2.432   0.691  0.00  0.00    +0.002 A 
ATOM     20  C   UNL     1      -2.729  -2.611  -1.519  0.00  0.00    +0.002 A 
ATOM     22  C   UNL     1      -3.475  -3.163  -0.477  0.00  0.00    +0.000 A 
ENDBRANCH   6  14
BRANCH  15  18
ATOM      4  O   UNL     1       2.536  -1.210   0.974  0.00  0.00    -0.350 OA
ATOM      7  N   UNL     1       2.997  -2.484   1.285  0.00  0.00    -0.086 NA
ATOM     18  C   UNL     1       3.403  -0.617   0.115  0.00  0.00    +0.222 A 
ATOM     21  C   UNL     1       4.439  -1.471  -0.157  0.00  0.00    +0.077 A 
ATOM     23  C   UNL     1       4.135  -2.617   0.598  0.00  0.00    +0.157 A 
ENDBRANCH  15  18
TORSDOF 2
