REMARK  Name = 28962876
REMARK  7 active torsions:
REMARK  status: ('A' for Active; 'I' for Inactive)
REMARK    1  A    between atoms: O_4  and  C_22
REMARK    2  A    between atoms: O_4  and  C_23
REMARK    3  A    between atoms: N_5  and  C_14
REMARK    4  A    between atoms: C_7  and  C_17
REMARK    5  A    between atoms: C_10  and  C_18
REMARK    6  A    between atoms: C_16  and  C_20
REMARK    7  A    between atoms: C_21  and  C_22
REMARK                            x       y       z     vdW  Elec       q    Type
REMARK                         _______ _______ _______ _____ _____    ______ ____
ROOT
ATOM      1  O   UNL     1      -2.392   1.732   0.122  0.00  0.00    -0.461 OA
ATOM      2  O   UNL     1      -4.239   3.096  -0.003  0.00  0.00    -0.251 OA
ATOM      6  C   UNL     1      -0.897  -0.293  -0.090  0.00  0.00    +0.041 C 
ATOM      7  C   UNL     1      -0.946  -1.844   0.180  0.00  0.00    -0.025 C 
ATOM      8  C   UNL     1      -2.205   0.345   0.413  0.00  0.00    +0.184 C 
ATOM      9  C   UNL     1      -3.393  -0.273  -0.304  0.00  0.00    +0.044 C 
ATOM     10  C   UNL     1       0.423   0.346   0.441  0.00  0.00    +0.013 C 
ATOM     11  C   UNL     1      -2.241  -2.465  -0.427  0.00  0.00    +0.007 C 
ATOM     12  C   UNL     1       0.278  -2.493  -0.507  0.00  0.00    +0.009 C 
ATOM     13  C   UNL     1      -3.531  -1.750  -0.000  0.00  0.00    +0.008 C 
ATOM     14  C   UNL     1       1.649  -0.372  -0.187  0.00  0.00    +0.076 C 
ATOM     15  C   UNL     1       1.602  -1.897  -0.043  0.00  0.00    +0.023 C 
ATOM     16  C   UNL     1      -4.502   0.667   0.128  0.00  0.00    +0.101 C 
ATOM     17  C   UNL     1      -0.920  -2.190   1.691  0.00  0.00    +0.011 C 
ATOM     18  C   UNL     1       0.504   1.855   0.160  0.00  0.00    +0.010 C 
ATOM     19  C   UNL     1      -3.746   1.982   0.071  0.00  0.00    +0.311 C 
ATOM     20  C   UNL     1      -5.704   0.644  -0.796  0.00  0.00    +0.019 C 
ENDROOT
BRANCH  14   5
ATOM      3  O   UNL     1       4.202  -0.160  -1.530  0.00  0.00    -0.273 OA
ATOM      5  N   UNL     1       2.893   0.109   0.373  0.00  0.00    -0.310 N 
ATOM     21  C   UNL     1       4.069   0.172  -0.355  0.00  0.00    +0.239 C 
ATOM     24  H   UNL     1       2.910   0.350   1.360  0.00  0.00    +0.149 HD
BRANCH  21  22
ATOM     22  C   UNL     1       5.212   0.714   0.477  0.00  0.00    +0.255 C 
BRANCH  22   4
ATOM      4  O   UNL     1       6.396   0.783  -0.287  0.00  0.00    -0.374 OA
ATOM     23  C   UNL     1       7.490   1.291   0.472  0.00  0.00    +0.194 C 
ENDBRANCH  22   4
ENDBRANCH  21  22
ENDBRANCH  14   5
TORSDOF 3
