REMARK  Name = 45361621
REMARK  14 active torsions:
REMARK  status: ('A' for Active; 'I' for Inactive)
REMARK    1  A    between atoms: O_1  and  C_12
REMARK    2  A    between atoms: O_4  and  C_34
REMARK    3  A    between atoms: O_4  and  C_37
REMARK    4  A    between atoms: O_5  and  C_36
REMARK    5  A    between atoms: O_5  and  C_38
REMARK    6  A    between atoms: N_6  and  C_16
REMARK    7  A    between atoms: N_7  and  C_26
REMARK    8  A    between atoms: C_9  and  C_19
REMARK    9  A    between atoms: C_11  and  C_21
REMARK   10  A    between atoms: C_15  and  C_20
REMARK   11  A    between atoms: C_20  and  C_22
REMARK   12  A    between atoms: C_20  and  C_23
REMARK   13  A    between atoms: C_24  and  C_25
REMARK   14  A    between atoms: C_26  and  C_28
REMARK                            x       y       z     vdW  Elec       q    Type
REMARK                         _______ _______ _______ _____ _____    ______ ____
ROOT
ATOM      9  C   UNL     1       0.596  -1.466  -1.774  0.00  0.00    -0.027 C 
ATOM     10  C   UNL     1       0.282  -2.056  -0.359  0.00  0.00    +0.028 C 
ATOM     11  C   UNL     1      -0.958  -1.337   0.284  0.00  0.00    +0.012 C 
ATOM     12  C   UNL     1       1.560  -2.105   0.528  0.00  0.00    +0.122 C 
ATOM     13  C   UNL     1       1.747  -2.269  -2.424  0.00  0.00    +0.007 C 
ATOM     14  C   UNL     1      -0.652  -1.621  -2.673  0.00  0.00    +0.009 C 
ATOM     15  C   UNL     1       2.741  -2.820  -0.170  0.00  0.00    +0.029 C 
ATOM     16  C   UNL     1      -2.187  -1.434  -0.663  0.00  0.00    +0.076 C 
ATOM     17  C   UNL     1       3.013  -2.287  -1.577  0.00  0.00    +0.007 C 
ATOM     18  C   UNL     1      -1.895  -0.965  -2.088  0.00  0.00    +0.023 C 
ATOM     19  C   UNL     1       1.002   0.029  -1.717  0.00  0.00    +0.011 C 
ATOM     21  C   UNL     1      -1.341  -1.889   1.667  0.00  0.00    +0.010 C 
ENDROOT
BRANCH  16   6
ATOM      3  O   UNL     1      -4.966  -2.068  -1.013  0.00  0.00    -0.269 OA
ATOM      6  N   UNL     1      -3.316  -0.683  -0.155  0.00  0.00    -0.307 N 
ATOM     24  C   UNL     1      -4.625  -1.073  -0.379  0.00  0.00    +0.263 C 
ATOM     39  H   UNL     1      -3.134   0.190   0.332  0.00  0.00    +0.149 HD
BRANCH  24  25
ATOM      8  N   UNL     1      -5.216   0.907   0.850  0.00  0.00    -0.250 NA
ATOM     25  C   UNL     1      -5.670  -0.180   0.186  0.00  0.00    +0.125 A 
ATOM     27  C   UNL     1      -7.012  -0.481   0.017  0.00  0.00    +0.033 A 
ATOM     29  C   UNL     1      -7.948   0.389   0.565  0.00  0.00    +0.004 A 
ATOM     30  C   UNL     1      -6.155   1.729   1.368  0.00  0.00    +0.111 A 
ATOM     33  C   UNL     1      -7.520   1.517   1.255  0.00  0.00    +0.020 A 
ENDBRANCH  24  25
ENDBRANCH  16   6
BRANCH  12   1
ATOM      1  O   UNL     1       1.284  -2.842   1.720  0.00  0.00    -0.391 OA
ATOM     40  H   UNL     1       1.003  -3.736   1.464  0.00  0.00    +0.210 HD
ENDBRANCH  12   1
BRANCH  15  20
ATOM     20  C   UNL     1       4.025  -2.743   0.664  0.00  0.00    +0.077 C 
ATOM     22  C   UNL     1       4.003  -3.803   1.760  0.00  0.00    +0.017 C 
BRANCH  20  23
ATOM      2  O   UNL     1       3.746  -1.031   2.354  0.00  0.00    -0.276 OA
ATOM      7  N   UNL     1       4.863  -0.485   0.396  0.00  0.00    -0.311 N 
ATOM     23  C   UNL     1       4.183  -1.343   1.248  0.00  0.00    +0.216 C 
ATOM     41  H   UNL     1       5.222  -0.833  -0.487  0.00  0.00    +0.149 HD
BRANCH   7  26
ATOM     26  C   UNL     1       5.133   0.894   0.728  0.00  0.00    +0.139 C 
BRANCH  26  28
ATOM     28  C   UNL     1       4.032   1.808   0.275  0.00  0.00    -0.027 A 
ATOM     31  C   UNL     1       3.132   2.330   1.204  0.00  0.00    +0.054 A 
ATOM     32  C   UNL     1       3.910   2.136  -1.076  0.00  0.00    +0.009 A 
ATOM     34  C   UNL     1       2.109   3.180   0.782  0.00  0.00    +0.162 A 
ATOM     35  C   UNL     1       2.887   2.986  -1.497  0.00  0.00    +0.050 A 
ATOM     36  C   UNL     1       1.986   3.508  -0.568  0.00  0.00    +0.162 A 
BRANCH  34   4
ATOM      4  O   UNL     1       1.237   3.685   1.699  0.00  0.00    -0.491 OA
ATOM     37  C   UNL     1       0.060   2.924   1.962  0.00  0.00    +0.277 C 
ENDBRANCH  34   4
BRANCH  36   5
ATOM      5  O   UNL     1       0.992   4.337  -0.991  0.00  0.00    -0.491 OA
ATOM     38  C   UNL     1       0.936   4.622  -2.388  0.00  0.00    +0.277 C 
ENDBRANCH  36   5
ENDBRANCH  26  28
ENDBRANCH   7  26
ENDBRANCH  20  23
ENDBRANCH  15  20
TORSDOF 9
