REMARK  Name = 11867599
REMARK  11 active torsions:
REMARK  status: ('A' for Active; 'I' for Inactive)
REMARK    1  A    between atoms: O_5  and  C_20
REMARK    2  A    between atoms: O_5  and  C_32
REMARK    3  A    between atoms: O_6  and  C_23
REMARK    4  A    between atoms: O_6  and  C_34
REMARK    5  A    between atoms: N_10  and  C_19
REMARK    6  A    between atoms: C_12  and  C_16
REMARK    7  A    between atoms: C_17  and  C_20
REMARK    8  A    between atoms: C_18  and  C_22
REMARK    9  A    between atoms: C_19  and  C_21
REMARK   10  A    between atoms: C_19  and  C_23
REMARK   11  A    between atoms: C_21  and  C_24
REMARK                            x       y       z     vdW  Elec       q    Type
REMARK                         _______ _______ _______ _____ _____    ______ ____
ROOT
ATOM      3  O   UNL     1       3.503   2.695   0.386  0.00  0.00    -0.273 OA
ATOM      4  O   UNL     1      -2.564  -0.342   2.303  0.00  0.00    -0.270 OA
ATOM      8  N   UNL     1       1.182   2.538   0.381  0.00  0.00    -0.285 N 
ATOM      9  N   UNL     1      -1.307   1.148   1.014  0.00  0.00    -0.294 N 
ATOM     12  C   UNL     1       1.186   1.280   1.132  0.00  0.00    +0.179 C 
ATOM     13  C   UNL     1      -0.126   1.022   1.870  0.00  0.00    +0.140 C 
ATOM     14  C   UNL     1      -0.128   3.124   0.069  0.00  0.00    +0.127 C 
ATOM     15  C   UNL     1      -1.211   2.070  -0.123  0.00  0.00    +0.127 C 
ATOM     17  C   UNL     1       2.399   3.180   0.128  0.00  0.00    +0.242 C 
ATOM     18  C   UNL     1      -2.463   0.435   1.355  0.00  0.00    +0.247 C 
ENDROOT
BRANCH  18  22
ATOM      1  F   UNL     1      -4.714   0.162  -2.934  0.00  0.00    -0.205 F 
ATOM     22  C   UNL     1      -3.661   0.615   0.519  0.00  0.00    +0.040 A 
ATOM     25  C   UNL     1      -3.619   0.297  -0.839  0.00  0.00    +0.051 A 
ATOM     26  C   UNL     1      -4.839   1.103   1.084  0.00  0.00    +0.013 A 
ATOM     28  C   UNL     1      -4.754   0.468  -1.631  0.00  0.00    +0.124 A 
ATOM     29  C   UNL     1      -5.974   1.274   0.292  0.00  0.00    +0.004 A 
ATOM     31  C   UNL     1      -5.932   0.956  -1.065  0.00  0.00    +0.038 A 
ENDBRANCH  18  22
BRANCH  12  16
ATOM      2  O   UNL     1       1.122   0.248  -1.022  0.00  0.00    -0.274 OA
ATOM     10  N   UNL     1       2.186  -0.861   0.726  0.00  0.00    -0.301 N 
ATOM     16  C   UNL     1       1.489   0.186   0.148  0.00  0.00    +0.236 C 
ATOM     36  H   UNL     1       2.461  -0.798   1.702  0.00  0.00    +0.150 HD
BRANCH  10  19
ATOM     19  C   UNL     1       2.579  -2.046  -0.001  0.00  0.00    +0.186 C 
BRANCH  19  23
ATOM      7  O   UNL     1       4.865  -1.407   0.452  0.00  0.00    -0.249 OA
ATOM     23  C   UNL     1       4.092  -2.174  -0.114  0.00  0.00    +0.328 C 
BRANCH  23   6
ATOM      6  O   UNL     1       4.462  -3.211  -0.917  0.00  0.00    -0.467 OA
ATOM     34  C   UNL     1       5.871  -3.389  -1.092  0.00  0.00    +0.280 C 
ENDBRANCH  23   6
ENDBRANCH  19  23
BRANCH  19  21
ATOM     21  C   UNL     1       1.937  -3.314   0.582  0.00  0.00    +0.070 C 
BRANCH  21  24
ATOM     11  N   UNL     1      -1.843  -3.111   0.802  0.00  0.00    -0.263 NA
ATOM     24  C   UNL     1       0.476  -3.498   0.238  0.00  0.00    -0.027 A 
ATOM     27  C   UNL     1       0.090  -4.191  -0.904  0.00  0.00    +0.006 A 
ATOM     30  C   UNL     1      -0.520  -2.981   1.051  0.00  0.00    +0.114 A 
ATOM     33  C   UNL     1      -1.261  -4.345  -1.194  0.00  0.00    +0.020 A 
ATOM     35  C   UNL     1      -2.179  -3.791  -0.317  0.00  0.00    +0.111 A 
ENDBRANCH  21  24
ENDBRANCH  19  21
ENDBRANCH  10  19
ENDBRANCH  12  16
BRANCH  17  20
ATOM     20  C   UNL     1       2.318   4.545  -0.510  0.00  0.00    +0.255 C 
BRANCH  20   5
ATOM      5  O   UNL     1       3.640   5.009  -0.637  0.00  0.00    -0.374 OA
ATOM     32  C   UNL     1       3.699   6.304  -1.232  0.00  0.00    +0.194 C 
ENDBRANCH  20   5
ENDBRANCH  17  20
TORSDOF 9
