REMARK  Name = 11912841
REMARK  7 active torsions:
REMARK  status: ('A' for Active; 'I' for Inactive)
REMARK    1  A    between atoms: O_4  and  C_13
REMARK    2  A    between atoms: O_4  and  C_17
REMARK    3  A    between atoms: O_5  and  C_18
REMARK    4  A    between atoms: O_5  and  C_25
REMARK    5  A    between atoms: N_7  and  C_12
REMARK    6  A    between atoms: C_17  and  C_18
REMARK    7  A    between atoms: C_19  and  C_22
REMARK                            x       y       z     vdW  Elec       q    Type
REMARK                         _______ _______ _______ _____ _____    ______ ____
ROOT
ATOM      7  N   UNL     1      -0.167  -1.803   0.741  0.00  0.00    -0.306 N 
ATOM      8  N   UNL     1      -2.297  -0.952   0.246  0.00  0.00    -0.214 NA
ATOM      9  N   UNL     1      -1.744  -3.250  -0.223  0.00  0.00    -0.223 NA
ATOM     16  C   UNL     1      -1.441  -2.008   0.239  0.00  0.00    +0.216 A 
ATOM     19  C   UNL     1      -3.530  -1.187  -0.249  0.00  0.00    +0.076 A 
ATOM     20  C   UNL     1      -2.994  -3.414  -0.704  0.00  0.00    +0.116 A 
ATOM     21  C   UNL     1      -3.938  -2.409  -0.743  0.00  0.00    +0.048 A 
ATOM     29  H   UNL     1       0.479  -2.582   0.683  0.00  0.00    +0.149 HD
ENDROOT
BRANCH   7  12
ATOM      2  O   UNL     1       2.670  -0.635   1.238  0.00  0.00    -0.369 OA
ATOM      3  O   UNL     1       0.824   1.720   0.560  0.00  0.00    -0.369 OA
ATOM     10  C   UNL     1       0.806   0.339   0.142  0.00  0.00    +0.172 C 
ATOM     11  C   UNL     1       2.251  -0.088  -0.023  0.00  0.00    +0.180 C 
ATOM     12  C   UNL     1       0.293  -0.535   1.263  0.00  0.00    +0.130 C 
ATOM     13  C   UNL     1       2.946   1.218  -0.325  0.00  0.00    +0.176 C 
ATOM     14  C   UNL     1       1.536  -0.735   2.113  0.00  0.00    +0.185 C 
ATOM     15  C   UNL     1       2.178   2.194   0.538  0.00  0.00    +0.194 C 
BRANCH  13   4
ATOM      4  O   UNL     1       4.322   1.208  -0.018  0.00  0.00    -0.360 OA
BRANCH   4  17
ATOM     17  C   UNL     1       5.043   0.287  -0.833  0.00  0.00    +0.280 C 
BRANCH  17  18
ATOM      6  O   UNL     1       6.973   1.063   0.411  0.00  0.00    -0.248 OA
ATOM     18  C   UNL     1       6.498   0.334  -0.449  0.00  0.00    +0.333 C 
BRANCH  18   5
ATOM      5  O   UNL     1       7.187  -0.565  -1.211  0.00  0.00    -0.466 OA
ATOM     25  C   UNL     1       8.594  -0.637  -0.958  0.00  0.00    +0.280 C 
ENDBRANCH  18   5
ENDBRANCH  17  18
ENDBRANCH   4  17
ENDBRANCH  13   4
ENDBRANCH   7  12
BRANCH  19  22
ATOM      1  F   UNL     1      -4.284   3.580  -0.441  0.00  0.00    -0.205 F 
ATOM     22  C   UNL     1      -4.423  -0.053  -0.234  0.00  0.00    +0.003 A 
ATOM     23  C   UNL     1      -3.913   1.243  -0.347  0.00  0.00    +0.048 A 
ATOM     24  C   UNL     1      -5.800  -0.246  -0.106  0.00  0.00    +0.010 A 
ATOM     26  C   UNL     1      -4.776   2.339  -0.332  0.00  0.00    +0.124 A 
ATOM     27  C   UNL     1      -6.663   0.850  -0.091  0.00  0.00    +0.003 A 
ATOM     28  C   UNL     1      -6.151   2.142  -0.204  0.00  0.00    +0.038 A 
ENDBRANCH  19  22
TORSDOF 6
