REMARK  Name = 45783310
REMARK  7 active torsions:
REMARK  status: ('A' for Active; 'I' for Inactive)
REMARK    1  A    between atoms: O_3  and  C_35
REMARK    2  A    between atoms: N_5  and  C_16
REMARK    3  A    between atoms: C_11  and  C_21
REMARK    4  A    between atoms: C_15  and  C_24
REMARK    5  A    between atoms: C_16  and  C_22
REMARK    6  A    between atoms: C_25  and  C_27
REMARK    7  A    between atoms: C_34  and  C_35
REMARK                            x       y       z     vdW  Elec       q    Type
REMARK                         _______ _______ _______ _____ _____    ______ ____
ROOT
ATOM      1  O   UNL     1      -3.644   1.043  -1.905  0.00  0.00    -0.336 OA
ATOM      7  N   UNL     1      -1.967   1.138  -0.424  0.00  0.00    -0.190 NA
ATOM      8  N   UNL     1      -2.463   0.910  -2.646  0.00  0.00    -0.056 NA
ATOM     21  C   UNL     1      -3.263   1.173  -0.607  0.00  0.00    +0.245 A 
ATOM     25  C   UNL     1      -1.519   0.976  -1.703  0.00  0.00    +0.202 A 
ENDROOT
BRANCH  25  27
ATOM      6  N   UNL     1       3.097   0.942  -0.288  0.00  0.00    -0.315 N 
ATOM      9  N   UNL     1       2.609   0.703  -2.593  0.00  0.00    -0.240 NA
ATOM     15  C   UNL     1       5.081   1.133   1.823  0.00  0.00    +0.078 C 
ATOM     17  C   UNL     1       3.705   0.515   2.062  0.00  0.00    +0.031 C 
ATOM     18  C   UNL     1       5.055   2.106   0.646  0.00  0.00    +0.031 C 
ATOM     19  C   UNL     1       3.060  -0.046   0.793  0.00  0.00    +0.107 C 
ATOM     20  C   UNL     1       4.414   1.508  -0.606  0.00  0.00    +0.107 C 
ATOM     23  C   UNL     1       2.162   0.864  -1.327  0.00  0.00    +0.122 A 
ATOM     26  C   UNL     1       0.823   0.959  -0.984  0.00  0.00    +0.055 A 
ATOM     27  C   UNL     1      -0.118   0.885  -2.005  0.00  0.00    +0.027 A 
ATOM     30  C   UNL     1       0.303   0.720  -3.320  0.00  0.00    +0.031 A 
ATOM     31  C   UNL     1       1.665   0.635  -3.559  0.00  0.00    +0.113 A 
BRANCH  15  24
ATOM      2  O   UNL     1       5.855  -1.120   1.608  0.00  0.00    -0.276 OA
ATOM     10  N   UNL     1       7.396   0.581   1.448  0.00  0.00    -0.329 N 
ATOM     24  C   UNL     1       6.127   0.078   1.612  0.00  0.00    +0.214 C 
ATOM     36  H   UNL     1       8.183  -0.041   1.296  0.00  0.00    +0.145 HD
ATOM     37  H   UNL     1       7.612   1.570   1.516  0.00  0.00    +0.145 HD
ENDBRANCH  15  24
ENDBRANCH  25  27
BRANCH  21  11
ATOM      5  N   UNL     1      -3.992   0.836   1.748  0.00  0.00    -0.287 NA
ATOM     11  C   UNL     1      -4.372   1.332   0.410  0.00  0.00    +0.146 C 
ATOM     12  C   UNL     1      -4.764   2.804   0.636  0.00  0.00    +0.030 C 
ATOM     13  C   UNL     1      -4.631   3.025   2.137  0.00  0.00    +0.017 C 
ATOM     14  C   UNL     1      -4.751   1.629   2.715  0.00  0.00    +0.085 C 
BRANCH   5  16
ATOM     16  C   UNL     1      -4.218  -0.594   1.915  0.00  0.00    +0.120 C 
BRANCH  16  22
ATOM     22  C   UNL     1      -3.121  -1.413   1.287  0.00  0.00    -0.033 A 
ATOM     28  C   UNL     1      -3.426  -2.340   0.291  0.00  0.00    +0.006 A 
ATOM     29  C   UNL     1      -1.800  -1.243   1.702  0.00  0.00    +0.006 A 
ATOM     32  C   UNL     1      -2.410  -3.098  -0.291  0.00  0.00    +0.015 A 
ATOM     33  C   UNL     1      -0.784  -2.002   1.120  0.00  0.00    +0.015 A 
ATOM     34  C   UNL     1      -1.089  -2.929   0.124  0.00  0.00    +0.059 A 
BRANCH  34  35
ATOM      4  O   UNL     1      -0.184  -4.564  -1.371  0.00  0.00    -0.245 OA
ATOM     35  C   UNL     1      -0.029  -3.718  -0.483  0.00  0.00    +0.337 C 
BRANCH  35   3
ATOM      3  O   UNL     1       1.196  -3.430   0.034  0.00  0.00    -0.477 OA
ATOM     38  H   UNL     1       1.904  -3.966  -0.382  0.00  0.00    +0.295 HD
ENDBRANCH  35   3
ENDBRANCH  34  35
ENDBRANCH  16  22
ENDBRANCH   5  16
ENDBRANCH  21  11
TORSDOF 7
