REMARK  Name = 45783486
REMARK  10 active torsions:
REMARK  status: ('A' for Active; 'I' for Inactive)
REMARK    1  A    between atoms: O_2  and  C_23
REMARK    2  A    between atoms: O_2  and  C_24
REMARK    3  A    between atoms: N_3  and  C_12
REMARK    4  A    between atoms: N_7  and  C_21
REMARK    5  A    between atoms: N_7  and  C_22
REMARK    6  A    between atoms: C_8  and  C_13
REMARK    7  A    between atoms: C_12  and  C_14
REMARK    8  A    between atoms: C_14  and  C_15
REMARK    9  A    between atoms: C_16  and  C_17
REMARK   10  A    between atoms: C_22  and  C_23
REMARK                            x       y       z     vdW  Elec       q    Type
REMARK                         _______ _______ _______ _____ _____    ______ ____
ROOT
ATOM      1  O   UNL     1      -2.457  -1.412   1.656  0.00  0.00    -0.336 OA
ATOM      4  N   UNL     1      -1.516  -0.624  -0.217  0.00  0.00    -0.190 NA
ATOM      5  N   UNL     1      -1.078  -1.385   1.895  0.00  0.00    -0.056 NA
ATOM     13  C   UNL     1      -2.629  -0.948   0.391  0.00  0.00    +0.245 A 
ATOM     16  C   UNL     1      -0.592  -0.908   0.745  0.00  0.00    +0.204 A 
ENDROOT
BRANCH  16  17
ATOM      6  N   UNL     1       3.073  -0.833   1.369  0.00  0.00    -0.240 NA
ATOM     17  C   UNL     1       0.811  -0.707   0.525  0.00  0.00    +0.041 A 
ATOM     18  C   UNL     1       1.283  -0.211  -0.686  0.00  0.00    +0.016 A 
ATOM     19  C   UNL     1       1.739  -1.000   1.511  0.00  0.00    +0.124 A 
ATOM     20  C   UNL     1       2.648  -0.026  -0.870  0.00  0.00    +0.044 A 
ATOM     21  C   UNL     1       3.494  -0.349   0.178  0.00  0.00    +0.119 A 
BRANCH  21   7
ATOM      7  N   UNL     1       4.883  -0.156  -0.025  0.00  0.00    -0.327 N 
ATOM     25  H   UNL     1       5.491  -0.393   0.751  0.00  0.00    +0.148 HD
BRANCH   7  22
ATOM     22  C   UNL     1       5.420   0.349  -1.247  0.00  0.00    +0.131 C 
BRANCH  22  23
ATOM     23  C   UNL     1       6.936   0.407  -1.164  0.00  0.00    +0.178 C 
BRANCH  23   2
ATOM      2  O   UNL     1       7.319   1.291  -0.118  0.00  0.00    -0.381 OA
ATOM     24  C   UNL     1       8.732   1.383  -0.006  0.00  0.00    +0.194 C 
ENDBRANCH  23   2
ENDBRANCH  22  23
ENDBRANCH   7  22
ENDBRANCH  21   7
ENDBRANCH  16  17
BRANCH  13   8
ATOM      3  N   UNL     1      -4.439   0.482  -0.543  0.00  0.00    -0.291 NA
ATOM      8  C   UNL     1      -4.055  -0.878  -0.115  0.00  0.00    +0.146 C 
ATOM      9  C   UNL     1      -4.290  -1.760  -1.355  0.00  0.00    +0.030 C 
ATOM     10  C   UNL     1      -5.445   0.316  -1.592  0.00  0.00    +0.085 C 
ATOM     11  C   UNL     1      -4.864  -0.821  -2.407  0.00  0.00    +0.017 C 
BRANCH   3  12
ATOM     12  C   UNL     1      -4.921   1.314   0.552  0.00  0.00    +0.085 C 
BRANCH  12  14
ATOM     14  C   UNL     1      -4.788   2.792   0.193  0.00  0.00    +0.012 C 
ATOM     15  C   UNL     1      -5.264   3.683   1.329  0.00  0.00    +0.005 C 
ENDBRANCH  12  14
ENDBRANCH   3  12
ENDBRANCH  13   8
TORSDOF 8
