REMARK  Name = 75367749
REMARK  7 active torsions:
REMARK  status: ('A' for Active; 'I' for Inactive)
REMARK    1  A    between atoms: O_2  and  C_8
REMARK    2  A    between atoms: O_2  and  C_15
REMARK    3  A    between atoms: O_4  and  C_24
REMARK    4  A    between atoms: O_4  and  C_25
REMARK    5  A    between atoms: N_6  and  C_18
REMARK    6  A    between atoms: C_13  and  C_14
REMARK    7  A    between atoms: C_17  and  C_21
REMARK                            x       y       z     vdW  Elec       q    Type
REMARK                         _______ _______ _______ _____ _____    ______ ____
ROOT
ATOM      1  O   UNL     1       2.691   3.442   0.144  0.00  0.00    -0.375 OA
ATOM      3  O   UNL     1       3.315  -1.145  -1.780  0.00  0.00    -0.268 OA
ATOM      5  N   UNL     1       2.716   0.413  -0.134  0.00  0.00    -0.291 N 
ATOM      8  C   UNL     1       0.802   1.835   0.509  0.00  0.00    +0.216 C 
ATOM      9  C   UNL     1       1.837   0.815   0.976  0.00  0.00    +0.155 C 
ATOM     10  C   UNL     1       3.734   1.384  -0.543  0.00  0.00    +0.136 C 
ATOM     11  C   UNL     1       1.320   3.277   0.484  0.00  0.00    +0.206 C 
ATOM     12  C   UNL     1       3.129   2.709  -0.994  0.00  0.00    +0.179 C 
ATOM     13  C   UNL     1       2.614  -0.799  -0.830  0.00  0.00    +0.265 C 
ENDROOT
BRANCH  13  14
ATOM      6  N   UNL     1       1.753  -2.738   0.525  0.00  0.00    -0.262 N 
ATOM      7  N   UNL     1       0.654  -3.483   0.733  0.00  0.00    -0.176 NA
ATOM     14  C   UNL     1       1.585  -1.756  -0.407  0.00  0.00    +0.123 A 
ATOM     16  C   UNL     1       0.286  -1.868  -0.840  0.00  0.00    +0.057 A 
ATOM     17  C   UNL     1      -0.238  -2.947  -0.103  0.00  0.00    +0.061 A 
ATOM     18  C   UNL     1       2.955  -3.028   1.272  0.00  0.00    +0.173 C 
ATOM     21  C   UNL     1      -1.601  -3.501  -0.172  0.00  0.00    +0.067 C 
ENDBRANCH  13  14
BRANCH   8   2
ATOM      2  O   UNL     1      -0.333   1.767   1.371  0.00  0.00    -0.485 OA
BRANCH   2  15
ATOM     15  C   UNL     1      -1.518   1.404   0.792  0.00  0.00    +0.121 A 
ATOM     19  C   UNL     1      -2.187   0.261   1.231  0.00  0.00    +0.049 A 
ATOM     20  C   UNL     1      -2.058   2.176  -0.236  0.00  0.00    +0.049 A 
ATOM     22  C   UNL     1      -3.395  -0.109   0.642  0.00  0.00    +0.049 A 
ATOM     23  C   UNL     1      -3.267   1.805  -0.826  0.00  0.00    +0.049 A 
ATOM     24  C   UNL     1      -3.935   0.663  -0.387  0.00  0.00    +0.120 A 
BRANCH  24   4
ATOM      4  O   UNL     1      -5.115   0.301  -0.962  0.00  0.00    -0.495 OA
ATOM     25  C   UNL     1      -5.745  -0.878  -0.465  0.00  0.00    +0.277 C 
ENDBRANCH  24   4
ENDBRANCH   2  15
ENDBRANCH   8   2
TORSDOF 4
