REMARK  Name = 7663613
REMARK  8 active torsions:
REMARK  status: ('A' for Active; 'I' for Inactive)
REMARK    1  A    between atoms: O_6  and  C_26
REMARK    2  A    between atoms: O_6  and  C_33
REMARK    3  A    between atoms: N_10  and  C_19
REMARK    4  A    between atoms: C_11  and  C_15
REMARK    5  A    between atoms: C_16  and  C_18
REMARK    6  A    between atoms: C_17  and  C_20
REMARK    7  A    between atoms: C_19  and  C_21
REMARK    8  A    between atoms: C_19  and  C_26
REMARK                            x       y       z     vdW  Elec       q    Type
REMARK                         _______ _______ _______ _____ _____    ______ ____
ROOT
ATOM      4  O   UNL     1      -2.640   0.585   2.119  0.00  0.00    -0.270 OA
ATOM      5  O   UNL     1       1.924  -3.389  -1.745  0.00  0.00    -0.270 OA
ATOM      8  N   UNL     1      -1.461  -0.796   0.640  0.00  0.00    -0.283 N 
ATOM      9  N   UNL     1       0.854  -2.345   0.052  0.00  0.00    -0.294 N 
ATOM     11  C   UNL     1      -0.150  -0.353   1.131  0.00  0.00    +0.179 C 
ATOM     12  C   UNL     1       0.878  -1.479   1.236  0.00  0.00    +0.140 C 
ATOM     13  C   UNL     1      -1.459  -1.740  -0.492  0.00  0.00    +0.128 C 
ATOM     14  C   UNL     1      -0.465  -2.874  -0.277  0.00  0.00    +0.127 C 
ATOM     16  C   UNL     1      -2.614  -0.205   1.176  0.00  0.00    +0.247 C 
ATOM     17  C   UNL     1       1.952  -2.671  -0.747  0.00  0.00    +0.247 C 
ENDROOT
BRANCH  16  18
ATOM      1  F   UNL     1      -6.108   0.685  -2.066  0.00  0.00    -0.205 F 
ATOM     18  C   UNL     1      -3.912  -0.529   0.567  0.00  0.00    +0.040 A 
ATOM     22  C   UNL     1      -4.404   0.248  -0.482  0.00  0.00    +0.051 A 
ATOM     23  C   UNL     1      -4.651  -1.613   1.039  0.00  0.00    +0.013 A 
ATOM     27  C   UNL     1      -5.635  -0.060  -1.059  0.00  0.00    +0.124 A 
ATOM     28  C   UNL     1      -5.883  -1.921   0.461  0.00  0.00    +0.004 A 
ATOM     31  C   UNL     1      -6.375  -1.145  -0.588  0.00  0.00    +0.038 A 
ENDBRANCH  16  18
BRANCH  17  20
ATOM      2  F   UNL     1       5.308   0.815  -1.038  0.00  0.00    -0.205 F 
ATOM     20  C   UNL     1       3.262  -2.120  -0.379  0.00  0.00    +0.040 A 
ATOM     24  C   UNL     1       3.671  -0.889  -0.893  0.00  0.00    +0.051 A 
ATOM     25  C   UNL     1       4.098  -2.827   0.485  0.00  0.00    +0.013 A 
ATOM     29  C   UNL     1       4.916  -0.366  -0.544  0.00  0.00    +0.124 A 
ATOM     30  C   UNL     1       5.343  -2.304   0.834  0.00  0.00    +0.004 A 
ATOM     32  C   UNL     1       5.752  -1.074   0.320  0.00  0.00    +0.038 A 
ENDBRANCH  17  20
BRANCH  11  15
ATOM      3  O   UNL     1       0.025   0.704  -1.004  0.00  0.00    -0.274 OA
ATOM     10  N   UNL     1       1.071   1.687   0.829  0.00  0.00    -0.301 N 
ATOM     15  C   UNL     1       0.306   0.725   0.191  0.00  0.00    +0.236 C 
ATOM     34  H   UNL     1       1.195   1.633   1.836  0.00  0.00    +0.150 HD
BRANCH  10  19
ATOM     19  C   UNL     1       1.650   2.819   0.142  0.00  0.00    +0.179 C 
ATOM     21  C   UNL     1       2.944   3.243   0.820  0.00  0.00    +0.040 C 
BRANCH  19  26
ATOM      7  O   UNL     1      -0.421   3.973   0.601  0.00  0.00    -0.249 OA
ATOM     26  C   UNL     1       0.683   3.991   0.067  0.00  0.00    +0.327 C 
BRANCH  26   6
ATOM      6  O   UNL     1       1.193   5.037  -0.643  0.00  0.00    -0.467 OA
ATOM     33  C   UNL     1       0.347   6.186  -0.753  0.00  0.00    +0.280 C 
ENDBRANCH  26   6
ENDBRANCH  19  26
ENDBRANCH  10  19
ENDBRANCH  11  15
TORSDOF 6
