REMARK  Name = 51136651
REMARK  12 active torsions:
REMARK  status: ('A' for Active; 'I' for Inactive)
REMARK    1  A    between atoms: O_2  and  C_18
REMARK    2  A    between atoms: O_4  and  C_29
REMARK    3  A    between atoms: O_4  and  C_30
REMARK    4  A    between atoms: C_7  and  C_12
REMARK    5  A    between atoms: C_8  and  C_13
REMARK    6  A    between atoms: C_12  and  C_15
REMARK    7  A    between atoms: C_13  and  C_18
REMARK    8  A    between atoms: C_14  and  C_16
REMARK    9  A    between atoms: C_16  and  C_17
REMARK   10  A    between atoms: C_17  and  C_21
REMARK   11  A    between atoms: C_17  and  C_22
REMARK   12  A    between atoms: C_17  and  C_23
REMARK                            x       y       z     vdW  Elec       q    Type
REMARK                         _______ _______ _______ _____ _____    ______ ____
ROOT
ATOM      1  O   UNL     1      -0.621  -3.674   0.820  0.00  0.00    -0.276 OA
ATOM      5  N   UNL     1      -1.669  -1.960  -0.346  0.00  0.00    -0.301 N 
ATOM      7  C   UNL     1      -2.131   0.450  -0.740  0.00  0.00    +0.016 C 
ATOM      8  C   UNL     1      -3.510   0.259  -0.060  0.00  0.00    +0.006 C 
ATOM      9  C   UNL     1      -1.658  -0.884  -1.346  0.00  0.00    +0.112 C 
ATOM     10  C   UNL     1      -3.490  -0.909   0.941  0.00  0.00    +0.023 C 
ATOM     11  C   UNL     1      -2.966  -2.187   0.292  0.00  0.00    +0.108 C 
ATOM     14  C   UNL     1      -0.578  -2.759  -0.006  0.00  0.00    +0.216 C 
ENDROOT
BRANCH   7  12
ATOM     12  C   UNL     1      -1.053   1.026   0.186  0.00  0.00    +0.061 C 
BRANCH  12  15
ATOM      6  N   UNL     1      -0.253   2.125  -1.793  0.00  0.00    -0.287 NA
ATOM     15  C   UNL     1       0.054   1.641  -0.635  0.00  0.00    +0.044 C 
ATOM     19  C   UNL     1       1.433   1.654  -0.082  0.00  0.00    -0.001 A 
ATOM     20  C   UNL     1       2.476   1.864  -0.993  0.00  0.00    -0.033 A 
ATOM     24  C   UNL     1       0.811   2.777  -2.565  0.00  0.00    +0.146 C 
ATOM     25  C   UNL     1       2.141   2.044  -2.444  0.00  0.00    +0.059 C 
ATOM     26  C   UNL     1       1.705   1.454   1.273  0.00  0.00    +0.013 A 
ATOM     27  C   UNL     1       3.799   1.847  -0.543  0.00  0.00    +0.050 A 
ATOM     28  C   UNL     1       3.028   1.455   1.715  0.00  0.00    +0.046 A 
ATOM     29  C   UNL     1       4.073   1.647   0.811  0.00  0.00    +0.120 A 
BRANCH  29   4
ATOM      4  O   UNL     1       5.362   1.639   1.249  0.00  0.00    -0.495 OA
ATOM     30  C   UNL     1       5.571   1.427   2.645  0.00  0.00    +0.277 C 
ENDBRANCH  29   4
ENDBRANCH  12  15
ENDBRANCH   7  12
BRANCH   8  13
ATOM     13  C   UNL     1      -4.032   1.531   0.607  0.00  0.00    +0.124 C 
BRANCH  13  18
ATOM      3  O   UNL     1      -6.276   0.596   0.431  0.00  0.00    -0.251 OA
ATOM     18  C   UNL     1      -5.527   1.500   0.768  0.00  0.00    +0.305 C 
BRANCH  18   2
ATOM      2  O   UNL     1      -5.948   2.648   1.358  0.00  0.00    -0.481 OA
ATOM     31  H   UNL     1      -6.921   2.662   1.480  0.00  0.00    +0.295 HD
ENDBRANCH  18   2
ENDBRANCH  13  18
ENDBRANCH   8  13
BRANCH  14  16
ATOM     16  C   UNL     1       0.723  -2.459  -0.706  0.00  0.00    +0.102 C 
BRANCH  16  17
ATOM     17  C   UNL     1       1.854  -3.424  -0.306  0.00  0.00    -0.029 C 
ATOM     21  C   UNL     1       2.131  -3.359   1.206  0.00  0.00    +0.011 C 
ATOM     22  C   UNL     1       3.148  -3.113  -1.077  0.00  0.00    +0.011 C 
ATOM     23  C   UNL     1       1.402  -4.853  -0.661  0.00  0.00    +0.011 C 
ENDBRANCH  16  17
ENDBRANCH  14  16
TORSDOF 8
