REMARK  Name = 56775678
REMARK  8 active torsions:
REMARK  status: ('A' for Active; 'I' for Inactive)
REMARK    1  A    between atoms: N_3  and  C_5
REMARK    2  A    between atoms: N_3  and  C_6
REMARK    3  A    between atoms: C_5  and  C_11
REMARK    4  A    between atoms: C_11  and  C_15
REMARK    5  A    between atoms: C_17  and  C_18
REMARK    6  A    between atoms: C_18  and  C_19
REMARK    7  A    between atoms: C_19  and  C_20
REMARK    8  A    between atoms: C_19  and  C_21
REMARK                            x       y       z     vdW  Elec       q    Type
REMARK                         _______ _______ _______ _____ _____    ______ ____
ROOT
ATOM      1  O   UNL     1      -0.425  -2.921  -0.186  0.00  0.00    -0.376 OA
ATOM      5  C   UNL     1      -1.050  -0.975   0.430  0.00  0.00    +0.072 C 
ATOM      7  C   UNL     1      -1.204  -1.867  -0.797  0.00  0.00    +0.184 C 
ATOM      8  C   UNL     1      -0.322  -2.166   1.043  0.00  0.00    +0.184 C 
ENDROOT
BRANCH   5   3
ATOM      3  N   UNL     1      -2.357  -0.836   1.079  0.00  0.00    -0.304 NA
ATOM     22  H   UNL     1      -2.278  -0.676   2.083  0.00  0.00    +0.123 HD
BRANCH   3   6
ATOM      6  C   UNL     1      -3.078   0.281   0.473  0.00  0.00    +0.054 C 
ATOM      9  C   UNL     1      -3.620  -0.132  -0.900  0.00  0.00    +0.019 C 
ATOM     10  C   UNL     1      -4.211   0.734   1.401  0.00  0.00    +0.019 C 
ATOM     12  C   UNL     1      -4.446   0.987  -1.532  0.00  0.00    +0.002 C 
ATOM     13  C   UNL     1      -5.036   1.853   0.766  0.00  0.00    +0.002 C 
ATOM     14  C   UNL     1      -5.568   1.450  -0.606  0.00  0.00    +0.000 C 
ENDBRANCH   3   6
ENDBRANCH   5   3
BRANCH   5  11
ATOM     11  C   UNL     1      -0.324   0.328   0.295  0.00  0.00    +0.085 C 
BRANCH  11  15
ATOM      2  O   UNL     1       2.790  -0.148  -1.474  0.00  0.00    -0.359 OA
ATOM      4  N   UNL     1       1.418   0.069  -1.435  0.00  0.00    -0.083 NA
ATOM     15  C   UNL     1       1.110   0.103  -0.135  0.00  0.00    +0.086 A 
ATOM     16  C   UNL     1       2.236  -0.085   0.685  0.00  0.00    +0.071 A 
ATOM     17  C   UNL     1       3.266  -0.239  -0.206  0.00  0.00    +0.138 A 
BRANCH  17  18
ATOM     18  C   UNL     1       4.708  -0.469  -0.062  0.00  0.00    +0.080 C 
BRANCH  18  19
ATOM     19  C   UNL     1       5.551   0.792   0.292  0.00  0.00    -0.010 C 
ATOM     20  C   UNL     1       5.145   1.365   1.652  0.00  0.00    +0.007 C 
ATOM     21  C   UNL     1       5.419   1.875  -0.782  0.00  0.00    +0.007 C 
ENDBRANCH  18  19
ENDBRANCH  17  18
ENDBRANCH  11  15
ENDBRANCH   5  11
TORSDOF 6
