REMARK  Name = 38027809
REMARK  14 active torsions:
REMARK  status: ('A' for Active; 'I' for Inactive)
REMARK    1  A    between atoms: O_4  and  C_35
REMARK    2  A    between atoms: O_4  and  C_36
REMARK    3  A    between atoms: N_5  and  C_15
REMARK    4  A    between atoms: N_7  and  C_28
REMARK    5  A    between atoms: C_8  and  C_12
REMARK    6  A    between atoms: C_9  and  C_15
REMARK    7  A    between atoms: C_11  and  C_16
REMARK    8  A    between atoms: C_12  and  C_17
REMARK    9  A    between atoms: C_12  and  C_18
REMARK   10  A    between atoms: C_13  and  C_19
REMARK   11  A    between atoms: C_16  and  C_24
REMARK   12  A    between atoms: C_20  and  C_21
REMARK   13  A    between atoms: C_27  and  C_29
REMARK   14  A    between atoms: C_28  and  C_30
REMARK                            x       y       z     vdW  Elec       q    Type
REMARK                         _______ _______ _______ _____ _____    ______ ____
ROOT
ATOM      8  C   UNL     1       3.299   0.507  -0.937  0.00  0.00    +0.000 C 
ATOM      9  C   UNL     1       4.340  -0.567  -0.531  0.00  0.00    +0.032 C 
ATOM     10  C   UNL     1       3.491   1.782  -0.101  0.00  0.00    +0.012 C 
ATOM     11  C   UNL     1       3.353   1.514   1.409  0.00  0.00    +0.023 C 
ATOM     13  C   UNL     1       4.145   0.297   1.841  0.00  0.00    -0.073 C 
ATOM     14  C   UNL     1       4.590  -0.616   0.958  0.00  0.00    -0.022 C 
ATOM     19  C   UNL     1       4.455   0.175   3.307  0.00  0.00    +0.039 C 
ENDROOT
BRANCH   8  12
ATOM     12  C   UNL     1       3.385   0.847  -2.428  0.00  0.00    -0.013 C 
ATOM     17  C   UNL     1       2.052   1.398  -2.925  0.00  0.00    +0.007 C 
ATOM     18  C   UNL     1       4.511   1.843  -2.683  0.00  0.00    +0.007 C 
ENDBRANCH   8  12
BRANCH   9  15
ATOM     15  C   UNL     1       3.921  -1.957  -1.024  0.00  0.00    +0.112 C 
BRANCH  15   5
ATOM      1  O   UNL     1       1.379  -2.635  -2.252  0.00  0.00    -0.276 OA
ATOM      5  N   UNL     1       2.728  -2.390  -0.367  0.00  0.00    -0.315 N 
ATOM     21  C   UNL     1       1.545  -2.697  -1.036  0.00  0.00    +0.216 C 
ATOM     37  H   UNL     1       2.786  -2.577   0.629  0.00  0.00    +0.149 HD
BRANCH  21  20
ATOM      3  O   UNL     1      -3.582  -1.219   2.011  0.00  0.00    -0.276 OA
ATOM      6  N   UNL     1      -2.196  -2.772   0.979  0.00  0.00    -0.302 N 
ATOM     20  C   UNL     1       0.457  -3.148  -0.112  0.00  0.00    +0.078 C 
ATOM     22  C   UNL     1      -0.797  -3.508  -0.913  0.00  0.00    +0.032 C 
ATOM     23  C   UNL     1       0.156  -2.040   0.901  0.00  0.00    +0.032 C 
ATOM     25  C   UNL     1      -1.964  -3.851   0.011  0.00  0.00    +0.108 C 
ATOM     26  C   UNL     1      -1.029  -2.413   1.788  0.00  0.00    +0.108 C 
ATOM     27  C   UNL     1      -3.413  -2.125   1.191  0.00  0.00    +0.212 C 
ATOM     29  C   UNL     1      -4.576  -2.582   0.348  0.00  0.00    +0.109 C 
ENDBRANCH  21  20
ENDBRANCH  15   5
ENDBRANCH   9  15
BRANCH  11  16
ATOM     16  C   UNL     1       1.880   1.382   1.815  0.00  0.00    +0.103 C 
BRANCH  16  24
ATOM      2  O   UNL     1       1.277   3.724   1.755  0.00  0.00    -0.276 OA
ATOM      7  N   UNL     1       0.050   2.194   0.509  0.00  0.00    -0.311 N 
ATOM     24  C   UNL     1       1.061   2.575   1.378  0.00  0.00    +0.214 C 
ATOM     38  H   UNL     1       0.001   1.229   0.196  0.00  0.00    +0.149 HD
BRANCH   7  28
ATOM     28  C   UNL     1      -0.890   3.128  -0.066  0.00  0.00    +0.139 C 
BRANCH  28  30
ATOM     30  C   UNL     1      -2.222   2.491  -0.338  0.00  0.00    -0.030 A 
ATOM     31  C   UNL     1      -2.375   1.633  -1.428  0.00  0.00    +0.009 A 
ATOM     32  C   UNL     1      -3.306   2.755   0.499  0.00  0.00    +0.009 A 
ATOM     33  C   UNL     1      -3.612   1.040  -1.680  0.00  0.00    +0.046 A 
ATOM     34  C   UNL     1      -4.543   2.162   0.247  0.00  0.00    +0.046 A 
ATOM     35  C   UNL     1      -4.696   1.305  -0.843  0.00  0.00    +0.120 A 
BRANCH  35   4
ATOM      4  O   UNL     1      -5.904   0.726  -1.089  0.00  0.00    -0.495 OA
ATOM     36  C   UNL     1      -6.969   1.040  -0.193  0.00  0.00    +0.277 C 
ENDBRANCH  35   4
ENDBRANCH  28  30
ENDBRANCH   7  28
ENDBRANCH  16  24
ENDBRANCH  11  16
TORSDOF 9
