REMARK  Name = 25390456
REMARK  12 active torsions:
REMARK  status: ('A' for Active; 'I' for Inactive)
REMARK    1  A    between atoms: S_1  and  N_9
REMARK    2  A    between atoms: S_1  and  C_25
REMARK    3  A    between atoms: O_3  and  C_12
REMARK    4  A    between atoms: O_4  and  C_13
REMARK    5  A    between atoms: N_9  and  C_17
REMARK    6  A    between atoms: N_10  and  C_19
REMARK    7  A    between atoms: N_11  and  C_20
REMARK    8  A    between atoms: C_14  and  C_16
REMARK    9  A    between atoms: C_15  and  C_17
REMARK   10  A    between atoms: C_16  and  C_18
REMARK   11  A    between atoms: C_19  and  C_20
REMARK   12  A    between atoms: C_30  and  C_31
REMARK                            x       y       z     vdW  Elec       q    Type
REMARK                         _______ _______ _______ _____ _____    ______ ____
ROOT
ATOM      2  O   UNL     1      -3.169  -1.022  -1.242  0.00  0.00    -0.366 OA
ATOM     12  C   UNL     1      -3.840  -1.683   0.919  0.00  0.00    +0.175 C 
ATOM     13  C   UNL     1      -4.508  -0.359   0.609  0.00  0.00    +0.175 C 
ATOM     14  C   UNL     1      -3.508  -2.191  -0.474  0.00  0.00    +0.158 C 
ATOM     15  C   UNL     1      -3.674   0.149  -0.562  0.00  0.00    +0.165 C 
ENDROOT
BRANCH  12   3
ATOM      3  O   UNL     1      -4.674  -2.578   1.623  0.00  0.00    -0.387 OA
ATOM     32  H   UNL     1      -4.954  -2.134   2.442  0.00  0.00    +0.210 HD
ENDBRANCH  12   3
BRANCH  13   4
ATOM      4  O   UNL     1      -5.840  -0.573   0.144  0.00  0.00    -0.387 OA
ATOM     33  H   UNL     1      -6.215   0.297  -0.073  0.00  0.00    +0.210 HD
ENDBRANCH  13   4
BRANCH  14  16
ATOM     16  C   UNL     1      -2.349  -3.171  -0.497  0.00  0.00    +0.130 C 
BRANCH  16  18
ATOM      5  O   UNL     1      -0.837  -2.692   1.329  0.00  0.00    -0.276 OA
ATOM     10  N   UNL     1      -0.287  -1.980  -0.814  0.00  0.00    -0.314 N 
ATOM     18  C   UNL     1      -1.091  -2.602   0.131  0.00  0.00    +0.216 C 
ATOM     35  H   UNL     1      -0.587  -1.952  -1.784  0.00  0.00    +0.149 HD
BRANCH  10  19
ATOM     19  C   UNL     1       0.971  -1.350  -0.487  0.00  0.00    +0.119 C 
BRANCH  19  20
ATOM     20  C   UNL     1       2.125  -2.336  -0.598  0.00  0.00    +0.103 C 
BRANCH  20  11
ATOM      6  O   UNL     1       6.177  -1.240  -0.601  0.00  0.00    -0.377 OA
ATOM     11  N   UNL     1       3.386  -1.681  -0.254  0.00  0.00    -0.297 NA
ATOM     21  C   UNL     1       3.908  -0.920  -1.398  0.00  0.00    +0.112 C 
ATOM     22  C   UNL     1       4.381  -2.667   0.190  0.00  0.00    +0.112 C 
ATOM     23  C   UNL     1       5.229  -0.257  -1.020  0.00  0.00    +0.175 C 
ATOM     24  C   UNL     1       5.691  -1.963   0.531  0.00  0.00    +0.175 C 
ENDBRANCH  20  11
ENDBRANCH  19  20
ENDBRANCH  10  19
ENDBRANCH  16  18
ENDBRANCH  14  16
BRANCH  15  17
ATOM     17  C   UNL     1      -2.479   0.985  -0.125  0.00  0.00    +0.140 C 
BRANCH  17   9
ATOM      9  N   UNL     1      -2.021   1.816  -1.254  0.00  0.00    -0.187 NA
ATOM     34  H   UNL     1      -1.743   1.302  -2.099  0.00  0.00    +0.148 HD
BRANCH   9   1
ATOM      1  S   UNL     1      -1.304   3.332  -0.962  0.00  0.00    +0.058 S 
ATOM      7  O   UNL     1      -2.191   4.132  -0.139  0.00  0.00    -0.153 OA
ATOM      8  O   UNL     1      -0.794   3.862  -2.212  0.00  0.00    -0.153 OA
BRANCH   1  25
ATOM     25  C   UNL     1       0.097   2.886   0.020  0.00  0.00    +0.105 A 
ATOM     26  C   UNL     1       1.313   2.590  -0.595  0.00  0.00    +0.029 A 
ATOM     27  C   UNL     1      -0.015   2.829   1.409  0.00  0.00    +0.029 A 
ATOM     28  C   UNL     1       2.418   2.235   0.179  0.00  0.00    +0.005 A 
ATOM     29  C   UNL     1       1.090   2.474   2.183  0.00  0.00    +0.005 A 
ATOM     30  C   UNL     1       2.306   2.177   1.569  0.00  0.00    -0.050 A 
ATOM     31  C   UNL     1       3.487   1.798   2.396  0.00  0.00    +0.044 C 
ENDBRANCH   1  25
ENDBRANCH   9   1
ENDBRANCH  17   9
ENDBRANCH  15  17
TORSDOF 11
