REMARK  Name = 51136904
REMARK  5 active torsions:
REMARK  status: ('A' for Active; 'I' for Inactive)
REMARK    1  A    between atoms: N_3  and  C_10
REMARK    2  A    between atoms: C_11  and  C_19
REMARK    3  A    between atoms: C_20  and  C_21
REMARK    4  A    between atoms: C_22  and  C_23
REMARK    5  A    between atoms: C_27  and  C_28
REMARK                            x       y       z     vdW  Elec       q    Type
REMARK                         _______ _______ _______ _____ _____    ______ ____
ROOT
ATOM      1  O   UNL     1      -1.344   2.618  -1.725  0.00  0.00    -0.336 OA
ATOM      5  N   UNL     1      -0.764   1.511   0.134  0.00  0.00    -0.190 NA
ATOM      6  N   UNL     1       0.011   2.293  -1.871  0.00  0.00    -0.056 NA
ATOM     19  C   UNL     1      -1.721   2.121  -0.518  0.00  0.00    +0.245 A 
ATOM     22  C   UNL     1       0.280   1.643  -0.736  0.00  0.00    +0.204 A 
ENDROOT
BRANCH  22  23
ATOM      7  N   UNL     1       3.877   0.777  -1.112  0.00  0.00    -0.254 NA
ATOM     23  C   UNL     1       1.579   1.113  -0.438  0.00  0.00    +0.041 A 
ATOM     24  C   UNL     1       1.823   0.442   0.755  0.00  0.00    +0.015 A 
ATOM     25  C   UNL     1       2.630   1.253  -1.330  0.00  0.00    +0.123 A 
ATOM     26  C   UNL     1       3.093  -0.061   1.016  0.00  0.00    +0.029 A 
ATOM     27  C   UNL     1       4.076   0.131   0.059  0.00  0.00    +0.074 A 
BRANCH  27  28
ATOM      8  N   UNL     1       6.918  -1.979   1.225  0.00  0.00    -0.243 NA
ATOM      9  N   UNL     1       7.788  -0.169  -0.107  0.00  0.00    -0.243 NA
ATOM     28  C   UNL     1       5.417  -0.363   0.262  0.00  0.00    +0.037 A 
ATOM     29  C   UNL     1       5.678  -1.491   1.012  0.00  0.00    +0.124 A 
ATOM     30  C   UNL     1       6.522   0.264  -0.279  0.00  0.00    +0.124 A 
ATOM     31  C   UNL     1       7.912  -1.280   0.645  0.00  0.00    +0.221 A 
ENDBRANCH  27  28
ENDBRANCH  22  23
BRANCH  19  11
ATOM      3  N   UNL     1      -3.666   1.302   0.801  0.00  0.00    -0.288 NA
ATOM     11  C   UNL     1      -3.165   2.343  -0.119  0.00  0.00    +0.146 C 
ATOM     12  C   UNL     1      -4.692   1.940   1.627  0.00  0.00    +0.085 C 
ATOM     13  C   UNL     1      -3.376   3.668   0.637  0.00  0.00    +0.030 C 
ATOM     16  C   UNL     1      -4.055   3.278   1.942  0.00  0.00    +0.017 C 
BRANCH   3  10
ATOM      2  O   UNL     1      -4.072  -4.828   0.556  0.00  0.00    -0.276 OA
ATOM      4  N   UNL     1      -4.047  -2.723  -0.427  0.00  0.00    -0.302 N 
ATOM     10  C   UNL     1      -4.172   0.118   0.112  0.00  0.00    +0.060 C 
ATOM     14  C   UNL     1      -3.075  -0.483  -0.776  0.00  0.00    +0.038 C 
ATOM     15  C   UNL     1      -4.663  -0.916   1.132  0.00  0.00    +0.038 C 
ATOM     17  C   UNL     1      -3.551  -1.778  -1.435  0.00  0.00    +0.109 C 
ATOM     18  C   UNL     1      -5.108  -2.201   0.436  0.00  0.00    +0.109 C 
ATOM     20  C   UNL     1      -3.615  -4.041  -0.276  0.00  0.00    +0.212 C 
ATOM     21  C   UNL     1      -2.517  -4.502  -1.200  0.00  0.00    +0.109 C 
ENDBRANCH   3  10
ENDBRANCH  19  11
TORSDOF 4
