REMARK  Name = 11866251
REMARK  9 active torsions:
REMARK  status: ('A' for Active; 'I' for Inactive)
REMARK    1  A    between atoms: S_2  and  N_10
REMARK    2  A    between atoms: S_2  and  C_27
REMARK    3  A    between atoms: O_7  and  C_28
REMARK    4  A    between atoms: O_7  and  C_33
REMARK    5  A    between atoms: O_8  and  C_30
REMARK    6  A    between atoms: O_8  and  C_34
REMARK    7  A    between atoms: C_12  and  C_20
REMARK    8  A    between atoms: C_17  and  C_24
REMARK    9  A    between atoms: C_19  and  C_25
REMARK                            x       y       z     vdW  Elec       q    Type
REMARK                         _______ _______ _______ _____ _____    ______ ____
ROOT
ATOM      1  S   UNL     1      -1.427  -2.691   0.946  0.00  0.00    -0.056 S 
ATOM      3  O   UNL     1       3.878   1.231  -1.097  0.00  0.00    -0.461 OA
ATOM      4  O   UNL     1       5.596   2.705  -1.504  0.00  0.00    -0.251 OA
ATOM      9  N   UNL     1      -1.132  -1.197  -1.144  0.00  0.00    -0.228 NA
ATOM     10  N   UNL     1      -3.383  -2.070  -0.923  0.00  0.00    -0.194 N 
ATOM     11  C   UNL     1       2.449  -0.511   0.032  0.00  0.00    +0.045 C 
ATOM     12  C   UNL     1       2.608  -1.918   0.758  0.00  0.00    -0.021 C 
ATOM     13  C   UNL     1       3.814  -0.078  -0.531  0.00  0.00    +0.184 C 
ATOM     14  C   UNL     1       4.837   0.016   0.584  0.00  0.00    +0.044 C 
ATOM     15  C   UNL     1       3.779  -1.876   1.788  0.00  0.00    +0.008 C 
ATOM     16  C   UNL     1       5.097  -1.337   1.215  0.00  0.00    +0.008 C 
ATOM     17  C   UNL     1       1.288  -0.503  -1.026  0.00  0.00    +0.043 C 
ATOM     18  C   UNL     1       1.292  -2.245   1.528  0.00  0.00    +0.051 C 
ATOM     19  C   UNL     1       5.975   0.710  -0.139  0.00  0.00    +0.101 C 
ATOM     20  C   UNL     1       2.895  -3.066  -0.247  0.00  0.00    +0.012 C 
ATOM     21  C   UNL     1       0.083  -1.230  -0.483  0.00  0.00    +0.057 A 
ATOM     22  C   UNL     1       0.107  -2.012   0.655  0.00  0.00    +0.015 A 
ATOM     23  C   UNL     1       5.175   1.682  -0.987  0.00  0.00    +0.311 C 
ATOM     24  C   UNL     1       0.902   0.917  -1.462  0.00  0.00    +0.014 C 
ATOM     25  C   UNL     1       6.943   1.409   0.796  0.00  0.00    +0.019 C 
ATOM     26  C   UNL     1      -2.003  -1.923  -0.477  0.00  0.00    +0.178 A 
ATOM     35  H   UNL     1      -3.962  -2.689  -0.343  0.00  0.00    +0.176 HD
ENDROOT
BRANCH  10   2
ATOM      2  S   UNL     1      -4.121  -0.651  -1.566  0.00  0.00    +0.077 S 
ATOM      5  O   UNL     1      -5.559  -0.830  -1.598  0.00  0.00    -0.150 OA
ATOM      6  O   UNL     1      -3.407  -0.219  -2.753  0.00  0.00    -0.150 OA
BRANCH   2  27
ATOM     27  C   UNL     1      -3.755   0.524  -0.294  0.00  0.00    +0.153 A 
ATOM     28  C   UNL     1      -4.378   0.430   0.939  0.00  0.00    +0.147 A 
ATOM     29  C   UNL     1      -2.838   1.526  -0.567  0.00  0.00    +0.078 A 
ATOM     30  C   UNL     1      -2.537   2.461   0.423  0.00  0.00    +0.122 A 
ATOM     31  C   UNL     1      -4.077   1.366   1.928  0.00  0.00    +0.051 A 
ATOM     32  C   UNL     1      -3.156   2.381   1.670  0.00  0.00    +0.049 A 
BRANCH  28   7
ATOM      7  O   UNL     1      -5.281  -0.553   1.212  0.00  0.00    -0.493 OA
ATOM     33  C   UNL     1      -6.650  -0.274   0.924  0.00  0.00    +0.277 C 
ENDBRANCH  28   7
BRANCH  30   8
ATOM      8  O   UNL     1      -1.638   3.452   0.171  0.00  0.00    -0.495 OA
ATOM     34  C   UNL     1      -1.377   4.375   1.228  0.00  0.00    +0.277 C 
ENDBRANCH  30   8
ENDBRANCH   2  27
ENDBRANCH  10   2
TORSDOF 4
