REMARK  Name = 25338519
REMARK  5 active torsions:
REMARK  status: ('A' for Active; 'I' for Inactive)
REMARK    1  A    between atoms: N_3  and  C_13
REMARK    2  A    between atoms: N_4  and  C_8
REMARK    3  A    between atoms: C_9  and  C_12
REMARK    4  A    between atoms: C_14  and  C_16
REMARK    5  A    between atoms: C_15  and  C_17
REMARK                            x       y       z     vdW  Elec       q    Type
REMARK                         _______ _______ _______ _____ _____    ______ ____
ROOT
ATOM      3  N   UNL     1      -2.202  -2.788   1.262  0.00  0.00    -0.293 NA
ATOM      8  C   UNL     1      -3.664  -1.696  -0.189  0.00  0.00    +0.089 C 
ATOM      9  C   UNL     1      -1.671  -3.105  -0.077  0.00  0.00    +0.147 C 
ATOM     10  C   UNL     1      -2.533  -2.268  -1.043  0.00  0.00    +0.052 C 
ATOM     11  C   UNL     1      -3.635  -2.539   1.077  0.00  0.00    +0.107 C 
ATOM     13  C   UNL     1      -1.954  -3.839   2.242  0.00  0.00    +0.105 C 
ENDROOT
BRANCH   9  12
ATOM      1  O   UNL     1       0.593  -3.865  -0.593  0.00  0.00    -0.336 OA
ATOM      5  N   UNL     1       0.460  -1.698  -0.042  0.00  0.00    -0.190 NA
ATOM      6  N   UNL     1       1.899  -3.365  -0.660  0.00  0.00    -0.056 NA
ATOM     12  C   UNL     1      -0.192  -2.820  -0.223  0.00  0.00    +0.245 A 
ATOM     15  C   UNL     1       1.739  -2.082  -0.322  0.00  0.00    +0.202 A 
BRANCH  15  17
ATOM     17  C   UNL     1       2.834  -1.159  -0.256  0.00  0.00    +0.023 A 
ATOM     18  C   UNL     1       2.605   0.170   0.103  0.00  0.00    +0.020 A 
ATOM     19  C   UNL     1       4.125  -1.589  -0.549  0.00  0.00    +0.012 A 
ATOM     22  C   UNL     1       3.666   1.087   0.173  0.00  0.00    -0.017 A 
ATOM     23  C   UNL     1       4.979   0.650  -0.125  0.00  0.00    -0.018 A 
ATOM     24  C   UNL     1       5.191  -0.691  -0.484  0.00  0.00    +0.009 A 
ATOM     26  C   UNL     1       3.454   2.428   0.532  0.00  0.00    +0.008 A 
ATOM     27  C   UNL     1       6.041   1.566  -0.055  0.00  0.00    +0.008 A 
ATOM     29  C   UNL     1       4.521   3.325   0.596  0.00  0.00    +0.001 A 
ATOM     30  C   UNL     1       5.811   2.895   0.303  0.00  0.00    +0.001 A 
ENDBRANCH  15  17
ENDBRANCH   9  12
BRANCH   8   4
ATOM      2  O   UNL     1      -4.641   0.540  -1.701  0.00  0.00    -0.270 OA
ATOM      4  N   UNL     1      -3.453  -0.298   0.105  0.00  0.00    -0.307 N 
ATOM     14  C   UNL     1      -3.968   0.715  -0.689  0.00  0.00    +0.246 C 
ATOM     31  H   UNL     1      -2.820  -0.079   0.868  0.00  0.00    +0.149 HD
BRANCH  14  16
ATOM      7  N   UNL     1      -3.293   4.416  -0.868  0.00  0.00    -0.263 NA
ATOM     16  C   UNL     1      -3.639   2.100  -0.266  0.00  0.00    +0.055 A 
ATOM     20  C   UNL     1      -3.375   2.400   1.066  0.00  0.00    +0.016 A 
ATOM     21  C   UNL     1      -3.586   3.135  -1.186  0.00  0.00    +0.123 A 
ATOM     25  C   UNL     1      -3.070   3.706   1.432  0.00  0.00    +0.020 A 
ATOM     28  C   UNL     1      -3.042   4.669   0.436  0.00  0.00    +0.111 A 
ENDBRANCH  14  16
ENDBRANCH   8   4
TORSDOF 4
