REMARK  Name = 75537121
REMARK  3 active torsions:
REMARK  status: ('A' for Active; 'I' for Inactive)
REMARK    1  A    between atoms: N_3  and  C_7
REMARK    2  A    between atoms: N_5  and  C_18
REMARK    3  A    between atoms: C_18  and  C_19
REMARK                            x       y       z     vdW  Elec       q    Type
REMARK                         _______ _______ _______ _____ _____    ______ ____
ROOT
ATOM      2  O   UNL     1       2.551   2.607  -0.038  0.00  0.00    -0.252 OA
ATOM      3  N   UNL     1       2.982   0.292  -0.186  0.00  0.00    -0.281 N 
ATOM      4  N   UNL     1       0.851   0.998  -0.237  0.00  0.00    -0.278 N 
ATOM      5  N   UNL     1      -1.582  -0.325   0.256  0.00  0.00    -0.295 NA
ATOM      6  C   UNL     1       0.767  -0.429  -0.471  0.00  0.00    +0.109 C 
ATOM      8  C   UNL     1       2.187  -0.924  -0.206  0.00  0.00    +0.133 C 
ATOM      9  C   UNL     1      -0.307  -1.052   0.420  0.00  0.00    +0.109 C 
ATOM     12  C   UNL     1       2.175   1.447  -0.144  0.00  0.00    +0.305 C 
ATOM     13  C   UNL     1      -0.363   1.787  -0.227  0.00  0.00    +0.125 C 
ATOM     14  C   UNL     1      -1.430   1.097   0.627  0.00  0.00    +0.104 C 
ENDROOT
BRANCH   3   7
ATOM      7  C   UNL     1       4.420   0.264  -0.069  0.00  0.00    +0.078 C 
ATOM     10  C   UNL     1       5.051  -0.298  -1.345  0.00  0.00    +0.022 C 
ATOM     11  C   UNL     1       4.848  -0.537   1.164  0.00  0.00    +0.022 C 
ATOM     15  C   UNL     1       6.571  -0.388  -1.228  0.00  0.00    +0.002 C 
ATOM     16  C   UNL     1       6.367  -0.626   1.277  0.00  0.00    +0.002 C 
ATOM     17  C   UNL     1       6.995  -1.184   0.003  0.00  0.00    +0.000 C 
ENDBRANCH   3   7
BRANCH   5  18
ATOM     18  C   UNL     1      -2.633  -0.951   1.058  0.00  0.00    +0.119 C 
BRANCH  18  19
ATOM      1  F   UNL     1      -7.774   0.243  -0.914  0.00  0.00    -0.205 F 
ATOM     19  C   UNL     1      -4.006  -0.632   0.531  0.00  0.00    -0.033 A 
ATOM     20  C   UNL     1      -4.686   0.495   0.994  0.00  0.00    +0.008 A 
ATOM     21  C   UNL     1      -4.599  -1.463  -0.419  0.00  0.00    +0.008 A 
ATOM     22  C   UNL     1      -5.959   0.790   0.505  0.00  0.00    +0.038 A 
ATOM     23  C   UNL     1      -5.872  -1.168  -0.907  0.00  0.00    +0.038 A 
ATOM     24  C   UNL     1      -6.552  -0.041  -0.445  0.00  0.00    +0.123 A 
ENDBRANCH  18  19
ENDBRANCH   5  18
TORSDOF 3
