REMARK  Name = 28962235
REMARK  11 active torsions:
REMARK  status: ('A' for Active; 'I' for Inactive)
REMARK    1  A    between atoms: O_2  and  C_10
REMARK    2  A    between atoms: O_3  and  C_13
REMARK    3  A    between atoms: N_5  and  C_8
REMARK    4  A    between atoms: N_5  and  C_14
REMARK    5  A    between atoms: N_5  and  C_15
REMARK    6  A    between atoms: N_6  and  C_12
REMARK    7  A    between atoms: C_9  and  C_12
REMARK    8  A    between atoms: C_11  and  C_13
REMARK    9  A    between atoms: C_14  and  C_16
REMARK   10  A    between atoms: C_16  and  C_17
REMARK   11  A    between atoms: C_18  and  C_20
REMARK                            x       y       z     vdW  Elec       q    Type
REMARK                         _______ _______ _______ _____ _____    ______ ____
ROOT
ATOM      1  O   UNL     1      -3.081  -0.145  -0.748  0.00  0.00    -0.365 OA
ATOM      8  C   UNL     1      -1.185   1.240  -0.351  0.00  0.00    +0.118 C 
ATOM      9  C   UNL     1      -1.676  -0.212  -0.413  0.00  0.00    +0.155 C 
ATOM     10  C   UNL     1      -2.450   2.015  -0.013  0.00  0.00    +0.165 C 
ATOM     11  C   UNL     1      -3.481   1.237  -0.821  0.00  0.00    +0.174 C 
ENDROOT
BRANCH  10   2
ATOM      2  O   UNL     1      -2.750   1.941   1.375  0.00  0.00    -0.388 OA
ATOM     24  H   UNL     1      -3.499   2.537   1.546  0.00  0.00    +0.210 HD
ENDBRANCH  10   2
BRANCH   8   5
ATOM      5  N   UNL     1      -0.050   1.497   0.517  0.00  0.00    -0.297 NA
ATOM     15  C   UNL     1       0.039   2.921   0.853  0.00  0.00    +0.105 C 
BRANCH   5  14
ATOM     14  C   UNL     1       1.198   1.049  -0.109  0.00  0.00    +0.090 C 
BRANCH  14  16
ATOM     16  C   UNL     1       2.309   0.897   0.931  0.00  0.00    +0.071 C 
BRANCH  16  17
ATOM      7  N   UNL     1       4.437   1.438  -0.122  0.00  0.00    -0.260 NA
ATOM     17  C   UNL     1       3.605   0.458   0.296  0.00  0.00    +0.042 A 
ATOM     19  C   UNL     1       3.876  -0.895   0.175  0.00  0.00    +0.023 A 
ATOM     21  C   UNL     1       5.080  -1.267  -0.413  0.00  0.00    +0.003 A 
ATOM     22  C   UNL     1       5.597   1.038  -0.689  0.00  0.00    +0.111 A 
ATOM     23  C   UNL     1       5.963  -0.288  -0.856  0.00  0.00    +0.020 A 
ENDBRANCH  16  17
ENDBRANCH  14  16
ENDBRANCH   5  14
ENDBRANCH   8   5
BRANCH   9  12
ATOM     12  C   UNL     1      -1.556  -1.030   0.868  0.00  0.00    +0.137 C 
BRANCH  12   6
ATOM      4  O   UNL     1      -0.010  -3.332   0.005  0.00  0.00    -0.276 OA
ATOM      6  N   UNL     1      -2.033  -2.390   0.665  0.00  0.00    -0.313 N 
ATOM     18  C   UNL     1      -1.210  -3.417   0.250  0.00  0.00    +0.210 C 
ATOM     20  C   UNL     1      -1.952  -4.722   0.145  0.00  0.00    +0.109 C 
ATOM     25  H   UNL     1      -3.017  -2.576   0.835  0.00  0.00    +0.149 HD
ENDBRANCH  12   6
ENDBRANCH   9  12
BRANCH  11  13
ATOM     13  C   UNL     1      -4.917   1.368  -0.346  0.00  0.00    +0.190 C 
BRANCH  13   3
ATOM      3  O   UNL     1      -5.753   0.602  -1.198  0.00  0.00    -0.392 OA
ATOM     26  H   UNL     1      -6.664   0.707  -0.875  0.00  0.00    +0.210 HD
ENDBRANCH  13   3
ENDBRANCH  11  13
TORSDOF 9
