REMARK  Name = 40586241
REMARK  8 active torsions:
REMARK  status: ('A' for Active; 'I' for Inactive)
REMARK    1  A    between atoms: S_1  and  N_9
REMARK    2  A    between atoms: S_1  and  C_25
REMARK    3  A    between atoms: O_4  and  C_15
REMARK    4  A    between atoms: O_4  and  C_24
REMARK    5  A    between atoms: N_9  and  C_14
REMARK    6  A    between atoms: N_10  and  C_18
REMARK    7  A    between atoms: N_11  and  C_30
REMARK    8  A    between atoms: C_31  and  C_32
REMARK                            x       y       z     vdW  Elec       q    Type
REMARK                         _______ _______ _______ _____ _____    ______ ____
ROOT
ATOM      2  O   UNL     1      -1.522  -1.280  -0.898  0.00  0.00    -0.369 OA
ATOM      3  O   UNL     1       0.446   1.079  -1.052  0.00  0.00    -0.368 OA
ATOM     12  C   UNL     1       0.366  -0.049  -0.156  0.00  0.00    +0.171 C 
ATOM     13  C   UNL     1      -1.106  -0.317   0.085  0.00  0.00    +0.191 C 
ATOM     14  C   UNL     1       0.854  -1.295  -0.854  0.00  0.00    +0.133 C 
ATOM     15  C   UNL     1      -1.730   1.036  -0.160  0.00  0.00    +0.235 C 
ATOM     16  C   UNL     1      -0.373  -1.756  -1.615  0.00  0.00    +0.183 C 
ATOM     17  C   UNL     1      -0.878   1.581  -1.283  0.00  0.00    +0.207 C 
ENDROOT
BRANCH  14   9
ATOM      9  N   UNL     1       1.237  -2.319   0.147  0.00  0.00    -0.182 NA
ATOM     33  H   UNL     1       0.650  -2.410   0.985  0.00  0.00    +0.148 HD
BRANCH   9   1
ATOM      1  S   UNL     1       2.788  -3.008   0.101  0.00  0.00    +0.059 S 
ATOM      5  O   UNL     1       3.038  -3.550  -1.222  0.00  0.00    -0.153 OA
ATOM      6  O   UNL     1       2.965  -3.841   1.275  0.00  0.00    -0.153 OA
BRANCH   1  25
ATOM     25  C   UNL     1       3.824  -1.591   0.313  0.00  0.00    +0.105 A 
ATOM     26  C   UNL     1       4.265  -0.877  -0.801  0.00  0.00    +0.030 A 
ATOM     27  C   UNL     1       4.199  -1.187   1.594  0.00  0.00    +0.030 A 
ATOM     28  C   UNL     1       5.082   0.241  -0.634  0.00  0.00    +0.025 A 
ATOM     29  C   UNL     1       5.016  -0.068   1.761  0.00  0.00    +0.025 A 
ATOM     30  C   UNL     1       5.457   0.646   0.647  0.00  0.00    +0.033 A 
BRANCH  30  11
ATOM      8  O   UNL     1       6.659   2.510  -1.389  0.00  0.00    -0.276 OA
ATOM     11  N   UNL     1       6.273   1.765   0.815  0.00  0.00    -0.286 N 
ATOM     31  C   UNL     1       6.809   2.601  -0.175  0.00  0.00    +0.214 C 
ATOM     32  C   UNL     1       7.644   3.707   0.420  0.00  0.00    +0.109 C 
ATOM     35  H   UNL     1       6.502   1.995   1.779  0.00  0.00    +0.155 HD
ENDBRANCH  30  11
ENDBRANCH   1  25
ENDBRANCH   9   1
ENDBRANCH  14   9
BRANCH  15   4
ATOM      4  O   UNL     1      -3.094   0.972  -0.510  0.00  0.00    -0.442 OA
BRANCH   4  24
ATOM      7  O   UNL     1      -3.686   1.235   1.693  0.00  0.00    -0.226 OA
ATOM     10  N   UNL     1      -5.291   1.006   0.034  0.00  0.00    -0.278 N 
ATOM     24  C   UNL     1      -4.002   1.085   0.517  0.00  0.00    +0.401 C 
ATOM     34  H   UNL     1      -5.407   0.834  -0.960  0.00  0.00    +0.152 HD
BRANCH  10  18
ATOM     18  C   UNL     1      -6.469   1.091   0.869  0.00  0.00    +0.076 C 
ATOM     19  C   UNL     1      -7.631   1.748   0.117  0.00  0.00    +0.022 C 
ATOM     20  C   UNL     1      -6.864  -0.289   1.406  0.00  0.00    +0.022 C 
ATOM     21  C   UNL     1      -8.215   0.840  -0.965  0.00  0.00    +0.002 C 
ATOM     22  C   UNL     1      -7.449  -1.194   0.322  0.00  0.00    +0.002 C 
ATOM     23  C   UNL     1      -8.611  -0.523  -0.405  0.00  0.00    +0.000 C 
ENDBRANCH  10  18
ENDBRANCH   4  24
ENDBRANCH  15   4
TORSDOF 7
