REMARK  Name = 7135197
REMARK  9 active torsions:
REMARK  status: ('A' for Active; 'I' for Inactive)
REMARK    1  A    between atoms: O_2  and  C_16
REMARK    2  A    between atoms: O_3  and  C_21
REMARK    3  A    between atoms: C_11  and  C_19
REMARK    4  A    between atoms: C_13  and  C_21
REMARK    5  A    between atoms: C_13  and  C_22
REMARK    6  A    between atoms: C_14  and  C_24
REMARK    7  A    between atoms: C_24  and  C_25
REMARK    8  A    between atoms: C_29  and  C_30
REMARK    9  A    between atoms: C_36  and  C_37
REMARK                            x       y       z     vdW  Elec       q    Type
REMARK                         _______ _______ _______ _____ _____    ______ ____
ROOT
ATOM      1  S   UNL     1      -1.417  -3.586  -0.574  0.00  0.00    -0.057 S 
ATOM      5  O   UNL     1       3.087  -2.593  -0.012  0.00  0.00    -0.275 OA
ATOM      7  N   UNL     1       0.279  -1.697  -0.078  0.00  0.00    -0.229 NA
ATOM      9  N   UNL     1       1.181  -3.906  -0.420  0.00  0.00    -0.264 N 
ATOM     11  C   UNL     1      -2.651   0.804  -0.261  0.00  0.00    -0.019 C 
ATOM     12  C   UNL     1      -3.701  -0.267   0.275  0.00  0.00    +0.011 C 
ATOM     13  C   UNL     1      -5.215   0.172   0.310  0.00  0.00    +0.021 C 
ATOM     14  C   UNL     1      -1.193   0.334   0.194  0.00  0.00    +0.054 C 
ATOM     15  C   UNL     1      -2.944   2.182   0.386  0.00  0.00    +0.010 C 
ATOM     16  C   UNL     1      -5.324   1.588   0.944  0.00  0.00    +0.123 C 
ATOM     17  C   UNL     1      -3.468  -1.664  -0.370  0.00  0.00    +0.049 C 
ATOM     18  C   UNL     1      -4.401   2.611   0.290  0.00  0.00    +0.032 C 
ATOM     19  C   UNL     1      -2.684   0.960  -1.801  0.00  0.00    +0.012 C 
ATOM     20  C   UNL     1      -0.983  -1.132  -0.087  0.00  0.00    +0.058 A 
ATOM     22  C   UNL     1      -6.005  -0.805   1.226  0.00  0.00    +0.016 C 
ATOM     23  C   UNL     1      -2.019  -2.014  -0.319  0.00  0.00    +0.015 A 
ATOM     26  C   UNL     1       0.172  -2.983  -0.330  0.00  0.00    +0.165 A 
ATOM     30  C   UNL     1       2.559  -3.680  -0.261  0.00  0.00    +0.222 C 
ATOM     40  H   UNL     1       0.878  -4.854  -0.625  0.00  0.00    +0.157 HD
ENDROOT
BRANCH  30  29
ATOM     29  C   UNL     1       3.408  -4.956  -0.437  0.00  0.00    +0.075 C 
ATOM     33  C   UNL     1       3.292  -6.041   0.653  0.00  0.00    +0.013 C 
ATOM     34  C   UNL     1       4.907  -4.867  -0.080  0.00  0.00    +0.013 C 
ATOM     35  C   UNL     1       4.793  -6.319   0.429  0.00  0.00    +0.001 C 
ENDBRANCH  30  29
BRANCH  16   2
ATOM      2  O   UNL     1      -6.666   2.069   0.873  0.00  0.00    -0.391 OA
ATOM     38  H   UNL     1      -6.694   2.932   1.320  0.00  0.00    +0.210 HD
ENDBRANCH  16   2
BRANCH  13  21
ATOM     21  C   UNL     1      -5.928   0.126  -1.060  0.00  0.00    +0.165 C 
BRANCH  21   3
ATOM      3  O   UNL     1      -7.264   0.531  -0.865  0.00  0.00    -0.394 OA
ATOM     39  H   UNL     1      -7.709   0.490  -1.729  0.00  0.00    +0.209 HD
ENDBRANCH  21   3
ENDBRANCH  13  21
BRANCH  14  24
ATOM     24  C   UNL     1      -0.045   1.183  -0.368  0.00  0.00    +0.106 C 
BRANCH  24  25
ATOM      4  O   UNL     1       1.058   0.461   1.602  0.00  0.00    -0.276 OA
ATOM      6  O   UNL     1       5.330   5.341  -1.403  0.00  0.00    -0.276 OA
ATOM      8  N   UNL     1       2.269   1.846   0.184  0.00  0.00    -0.298 N 
ATOM     10  N   UNL     1       4.097   4.006   0.043  0.00  0.00    -0.299 N 
ATOM     25  C   UNL     1       1.139   1.125   0.565  0.00  0.00    +0.216 C 
ATOM     27  C   UNL     1       2.423   2.585  -1.077  0.00  0.00    +0.126 C 
ATOM     28  C   UNL     1       3.460   1.843   1.037  0.00  0.00    +0.126 C 
ATOM     31  C   UNL     1       2.906   4.008  -0.810  0.00  0.00    +0.126 C 
ATOM     32  C   UNL     1       3.943   3.266   1.303  0.00  0.00    +0.126 C 
ATOM     36  C   UNL     1       5.227   4.728  -0.337  0.00  0.00    +0.213 C 
ATOM     37  C   UNL     1       6.380   4.737   0.634  0.00  0.00    +0.109 C 
ENDBRANCH  24  25
ENDBRANCH  14  24
TORSDOF 6
