REMARK  Name = 40777310
REMARK  12 active torsions:
REMARK  status: ('A' for Active; 'I' for Inactive)
REMARK    1  A    between atoms: S_1  and  N_5
REMARK    2  A    between atoms: S_1  and  C_23
REMARK    3  A    between atoms: N_5  and  C_17
REMARK    4  A    between atoms: C_11  and  C_18
REMARK    5  A    between atoms: C_12  and  C_17
REMARK    6  A    between atoms: C_20  and  C_22
REMARK    7  A    between atoms: C_21  and  C_26
REMARK    8  A    between atoms: C_22  and  C_24
REMARK    9  A    between atoms: C_22  and  C_25
REMARK   10  A    between atoms: C_24  and  C_27
REMARK   11  A    between atoms: C_25  and  C_28
REMARK   12  A    between atoms: C_29  and  C_38
REMARK                            x       y       z     vdW  Elec       q    Type
REMARK                         _______ _______ _______ _____ _____    ______ ____
ROOT
ATOM      4  N   UNL     1       1.809   3.685  -0.050  0.00  0.00    -0.297 NA
ATOM     10  C   UNL     1       0.303   2.772  -1.969  0.00  0.00    +0.002 C 
ATOM     11  C   UNL     1      -0.511   2.898  -0.652  0.00  0.00    +0.055 C 
ATOM     12  C   UNL     1       2.484   2.548  -0.728  0.00  0.00    +0.072 C 
ATOM     13  C   UNL     1       1.526   1.863  -1.727  0.00  0.00    +0.024 C 
ATOM     14  C   UNL     1       0.843   4.181  -2.296  0.00  0.00    +0.019 C 
ATOM     15  C   UNL     1       0.493   3.252   0.482  0.00  0.00    +0.094 C 
ATOM     16  C   UNL     1       1.573   4.742  -1.063  0.00  0.00    +0.085 C 
ENDROOT
BRANCH  11  18
ATOM      6  N   UNL     1      -1.471   0.695  -1.102  0.00  0.00    -0.232 NA
ATOM      7  N   UNL     1      -3.078  -0.332   0.371  0.00  0.00    -0.232 NA
ATOM     18  C   UNL     1      -1.438   1.754  -0.267  0.00  0.00    +0.050 A 
ATOM     19  C   UNL     1      -2.185   1.842   0.889  0.00  0.00    +0.047 A 
ATOM     20  C   UNL     1      -2.996   0.758   1.161  0.00  0.00    +0.048 A 
ATOM     21  C   UNL     1      -2.300  -0.298  -0.728  0.00  0.00    +0.160 A 
BRANCH  21  26
ATOM      8  N   UNL     1      -2.487  -3.672  -3.281  0.00  0.00    -0.263 NA
ATOM     26  C   UNL     1      -2.363  -1.445  -1.596  0.00  0.00    +0.022 A 
ATOM     31  C   UNL     1      -2.148  -1.299  -2.962  0.00  0.00    +0.031 A 
ATOM     32  C   UNL     1      -2.640  -2.703  -1.072  0.00  0.00    +0.031 A 
ATOM     36  C   UNL     1      -2.220  -2.433  -3.755  0.00  0.00    +0.111 A 
ATOM     37  C   UNL     1      -2.690  -3.774  -1.949  0.00  0.00    +0.111 A 
ENDBRANCH  21  26
BRANCH  20  22
ATOM     22  C   UNL     1      -3.841   0.763   2.390  0.00  0.00    +0.037 C 
BRANCH  22  24
ATOM     24  C   UNL     1      -5.366   0.698   2.082  0.00  0.00    +0.006 C 
ATOM     27  C   UNL     1      -5.853   1.880   1.252  0.00  0.00    +0.004 C 
ENDBRANCH  22  24
BRANCH  22  25
ATOM     25  C   UNL     1      -3.485  -0.384   3.380  0.00  0.00    +0.006 C 
ATOM     28  C   UNL     1      -2.046  -0.310   3.878  0.00  0.00    +0.004 C 
ENDBRANCH  22  25
ENDBRANCH  20  22
ENDBRANCH  11  18
BRANCH  12  17
ATOM     17  C   UNL     1       3.082   1.549   0.265  0.00  0.00    +0.124 C 
BRANCH  17   5
ATOM      5  N   UNL     1       3.837   0.524  -0.474  0.00  0.00    -0.188 NA
ATOM     39  H   UNL     1       3.528   0.322  -1.433  0.00  0.00    +0.148 HD
BRANCH   5   1
ATOM      1  S   UNL     1       4.627  -0.729   0.366  0.00  0.00    +0.060 S 
ATOM      2  O   UNL     1       5.502  -0.155   1.370  0.00  0.00    -0.153 OA
ATOM      3  O   UNL     1       5.145  -1.689  -0.591  0.00  0.00    -0.153 OA
BRANCH   1  23
ATOM     23  C   UNL     1       3.279  -1.510   1.200  0.00  0.00    +0.123 A 
ATOM     29  C   UNL     1       2.258  -2.158   0.504  0.00  0.00    +0.078 A 
ATOM     30  C   UNL     1       3.253  -1.467   2.594  0.00  0.00    +0.030 A 
ATOM     33  C   UNL     1       1.212  -2.762   1.202  0.00  0.00    +0.021 A 
ATOM     34  C   UNL     1       2.207  -2.071   3.292  0.00  0.00    +0.002 A 
ATOM     35  C   UNL     1       1.187  -2.719   2.596  0.00  0.00    +0.001 A 
BRANCH  29  38
ATOM      9  N   UNL     1       2.246  -2.272  -2.086  0.00  0.00    -0.191 NA
ATOM     38  C   UNL     1       2.251  -2.220  -0.926  0.00  0.00    +0.101 C 
ENDBRANCH  29  38
ENDBRANCH   1  23
ENDBRANCH   5   1
ENDBRANCH  17   5
ENDBRANCH  12  17
TORSDOF 10
