REMARK  Name = 7144128
REMARK  4 active torsions:
REMARK  status: ('A' for Active; 'I' for Inactive)
REMARK    1  A    between atoms: O_4  and  C_20
REMARK    2  A    between atoms: O_4  and  C_26
REMARK    3  A    between atoms: C_14  and  C_19
REMARK    4  A    between atoms: C_16  and  C_20
REMARK                            x       y       z     vdW  Elec       q    Type
REMARK                         _______ _______ _______ _____ _____    ______ ____
ROOT
ATOM      2  O   UNL     1      -2.172  -3.453   2.504  0.00  0.00    -0.268 OA
ATOM      3  O   UNL     1       2.021  -2.941  -0.642  0.00  0.00    -0.272 OA
ATOM      5  N   UNL     1       0.231  -1.751  -1.522  0.00  0.00    -0.298 N 
ATOM      6  N   UNL     1      -2.098  -2.058   0.624  0.00  0.00    -0.311 N 
ATOM      7  C   UNL     1      -1.905  -3.013  -1.747  0.00  0.00    +0.027 C 
ATOM      8  C   UNL     1      -1.963  -0.580  -1.405  0.00  0.00    +0.054 C 
ATOM      9  C   UNL     1      -2.614  -1.734  -2.164  0.00  0.00    +0.018 C 
ATOM     10  C   UNL     1      -0.406  -2.941  -2.085  0.00  0.00    +0.113 C 
ATOM     11  C   UNL     1      -2.144  -3.236  -0.253  0.00  0.00    +0.130 C 
ATOM     12  C   UNL     1      -0.471  -0.489  -1.790  0.00  0.00    +0.117 C 
ATOM     13  C   UNL     1      -2.110  -0.746   0.110  0.00  0.00    +0.034 A 
ATOM     14  C   UNL     1      -2.220   0.311   0.957  0.00  0.00    +0.002 A 
ATOM     15  C   UNL     1      -2.165  -2.329   2.003  0.00  0.00    +0.252 A 
ATOM     16  C   UNL     1       1.450  -1.869  -0.855  0.00  0.00    +0.253 C 
ATOM     17  C   UNL     1      -2.287   0.071   2.385  0.00  0.00    +0.015 A 
ATOM     18  C   UNL     1      -2.248  -1.157   2.903  0.00  0.00    +0.071 A 
ENDROOT
BRANCH  14  19
ATOM      1 CL   UNL     1      -2.361   5.950  -1.041  0.00  0.00    -0.084 Cl
ATOM     19  C   UNL     1      -2.255   1.705   0.462  0.00  0.00    -0.016 A 
ATOM     21  C   UNL     1      -1.066   2.409   0.297  0.00  0.00    +0.010 A 
ATOM     22  C   UNL     1      -3.476   2.303   0.167  0.00  0.00    +0.010 A 
ATOM     23  C   UNL     1      -1.099   3.724  -0.168  0.00  0.00    +0.020 A 
ATOM     24  C   UNL     1      -3.509   3.618  -0.299  0.00  0.00    +0.020 A 
ATOM     25  C   UNL     1      -2.321   4.328  -0.466  0.00  0.00    +0.041 A 
ENDBRANCH  14  19
BRANCH  16  20
ATOM     20  C   UNL     1       2.080  -0.589  -0.367  0.00  0.00    +0.324 C 
BRANCH  20   4
ATOM      4  O   UNL     1       3.266  -0.952   0.297  0.00  0.00    -0.483 OA
BRANCH   4  26
ATOM     26  C   UNL     1       4.285  -0.026   0.324  0.00  0.00    +0.121 A 
ATOM     27  C   UNL     1       3.977   1.327   0.306  0.00  0.00    +0.045 A 
ATOM     28  C   UNL     1       5.601  -0.462   0.366  0.00  0.00    +0.045 A 
ATOM     29  C   UNL     1       5.010   2.264   0.332  0.00  0.00    +0.004 A 
ATOM     30  C   UNL     1       6.633   0.476   0.392  0.00  0.00    +0.004 A 
ATOM     31  C   UNL     1       6.337   1.839   0.375  0.00  0.00    +0.000 A 
ENDBRANCH   4  26
ENDBRANCH  20   4
ENDBRANCH  16  20
TORSDOF 4
