REMARK  Name = 75367721
REMARK  8 active torsions:
REMARK  status: ('A' for Active; 'I' for Inactive)
REMARK    1  A    between atoms: S_1  and  C_20
REMARK    2  A    between atoms: S_1  and  C_26
REMARK    3  A    between atoms: O_3  and  C_9
REMARK    4  A    between atoms: O_3  and  C_15
REMARK    5  A    between atoms: O_4  and  C_25
REMARK    6  A    between atoms: O_4  and  C_27
REMARK    7  A    between atoms: N_7  and  C_12
REMARK    8  A    between atoms: C_12  and  C_14
REMARK                            x       y       z     vdW  Elec       q    Type
REMARK                         _______ _______ _______ _____ _____    ______ ____
ROOT
ATOM      2  O   UNL     1      -0.344   2.743   0.603  0.00  0.00    -0.375 OA
ATOM      7  N   UNL     1      -1.755   0.001   0.139  0.00  0.00    -0.292 NA
ATOM      8  C   UNL     1      -0.442  -0.320  -0.429  0.00  0.00    +0.131 C 
ATOM      9  C   UNL     1       0.650   0.760  -0.367  0.00  0.00    +0.213 C 
ATOM     10  C   UNL     1      -1.705   0.821   1.351  0.00  0.00    +0.113 C 
ATOM     11  C   UNL     1       0.146   2.177  -0.608  0.00  0.00    +0.205 C 
ATOM     13  C   UNL     1      -1.642   2.302   0.976  0.00  0.00    +0.175 C 
ENDROOT
BRANCH   9   3
ATOM      3  O   UNL     1       1.626   0.464  -1.367  0.00  0.00    -0.485 OA
BRANCH   3  15
ATOM     15  C   UNL     1       2.893   0.200  -0.925  0.00  0.00    +0.121 A 
ATOM     18  C   UNL     1       3.484  -1.034  -1.199  0.00  0.00    +0.047 A 
ATOM     19  C   UNL     1       3.594   1.164  -0.201  0.00  0.00    +0.047 A 
ATOM     20  C   UNL     1       5.478  -0.339  -0.024  0.00  0.00    +0.088 A 
ATOM     23  C   UNL     1       4.777  -1.303  -0.749  0.00  0.00    +0.030 A 
ATOM     24  C   UNL     1       4.886   0.895   0.250  0.00  0.00    +0.030 A 
BRANCH  20   1
ATOM      1  S   UNL     1       7.094  -0.676   0.543  0.00  0.00    -0.006 S 
ATOM      5  O   UNL     1       7.377   0.171   1.694  0.00  0.00    -0.170 OA
ATOM      6  O   UNL     1       7.236  -2.121   0.658  0.00  0.00    -0.170 OA
ATOM     26  C   UNL     1       8.150  -0.127  -0.777  0.00  0.00    +0.200 C 
ENDBRANCH  20   1
ENDBRANCH   3  15
ENDBRANCH   9   3
BRANCH   7  12
ATOM     12  C   UNL     1      -2.524  -1.226   0.354  0.00  0.00    +0.119 C 
BRANCH  12  14
ATOM     14  C   UNL     1      -4.007  -0.979   0.274  0.00  0.00    -0.033 A 
ATOM     16  C   UNL     1      -4.564  -0.447  -0.890  0.00  0.00    +0.008 A 
ATOM     17  C   UNL     1      -4.825  -1.282   1.362  0.00  0.00    +0.008 A 
ATOM     21  C   UNL     1      -5.937  -0.219  -0.964  0.00  0.00    +0.046 A 
ATOM     22  C   UNL     1      -6.199  -1.054   1.288  0.00  0.00    +0.046 A 
ATOM     25  C   UNL     1      -6.755  -0.522   0.124  0.00  0.00    +0.120 A 
BRANCH  25   4
ATOM      4  O   UNL     1      -8.095  -0.298   0.052  0.00  0.00    -0.495 OA
ATOM     27  C   UNL     1      -8.598   0.248  -1.167  0.00  0.00    +0.277 C 
ENDBRANCH  25   4
ENDBRANCH  12  14
ENDBRANCH   7  12
TORSDOF 6
