REMARK  Name = 45360891
REMARK  6 active torsions:
REMARK  status: ('A' for Active; 'I' for Inactive)
REMARK    1  A    between atoms: N_4  and  C_17
REMARK    2  A    between atoms: N_5  and  C_16
REMARK    3  A    between atoms: C_12  and  C_15
REMARK    4  A    between atoms: C_15  and  C_18
REMARK    5  A    between atoms: C_16  and  C_19
REMARK    6  A    between atoms: C_18  and  C_20
REMARK                            x       y       z     vdW  Elec       q    Type
REMARK                         _______ _______ _______ _____ _____    ______ ____
ROOT
ATOM      2  O   UNL     1      -1.491  -0.593  -1.167  0.00  0.00    -0.274 OA
ATOM      4  N   UNL     1      -0.180   2.519   0.728  0.00  0.00    -0.296 NA
ATOM      5  N   UNL     1      -3.376   0.839   0.133  0.00  0.00    -0.286 NA
ATOM      6  N   UNL     1      -0.289   1.230  -1.851  0.00  0.00    -0.312 N 
ATOM      8  C   UNL     1      -1.655   2.481   0.616  0.00  0.00    +0.084 C 
ATOM      9  C   UNL     1      -2.292   1.608  -0.505  0.00  0.00    +0.161 C 
ATOM     10  C   UNL     1      -2.364   1.949   1.876  0.00  0.00    +0.036 C 
ATOM     11  C   UNL     1      -3.727   1.534   1.365  0.00  0.00    +0.087 C 
ATOM     12  C   UNL     1       0.512   3.110  -0.451  0.00  0.00    +0.074 C 
ATOM     13  C   UNL     1      -1.337   0.627  -1.181  0.00  0.00    +0.232 C 
ATOM     14  C   UNL     1      -0.035   2.657  -1.819  0.00  0.00    +0.123 C 
ATOM     17  C   UNL     1       0.234   3.208   1.961  0.00  0.00    +0.105 C 
ATOM     34  H   UNL     1       0.338   0.638  -2.387  0.00  0.00    +0.149 HD
ENDROOT
BRANCH  12  15
ATOM     15  C   UNL     1       2.018   2.773  -0.418  0.00  0.00    +0.029 C 
BRANCH  15  18
ATOM     18  C   UNL     1       2.263   1.297  -0.172  0.00  0.00    +0.098 C 
BRANCH  18  20
ATOM      3  O   UNL     1       4.551   1.890  -0.354  0.00  0.00    -0.275 OA
ATOM      7  N   UNL     1       4.050  -0.354   0.051  0.00  0.00    -0.271 N 
ATOM     20  C   UNL     1       3.740   0.982  -0.169  0.00  0.00    +0.220 C 
ATOM     23  C   UNL     1       3.075  -1.442   0.272  0.00  0.00    +0.118 C 
ATOM     24  C   UNL     1       5.348  -0.904   0.099  0.00  0.00    +0.039 A 
ATOM     25  C   UNL     1       3.863  -2.741   0.476  0.00  0.00    +0.056 C 
ATOM     26  C   UNL     1       5.276  -2.277   0.342  0.00  0.00    -0.024 A 
ATOM     29  C   UNL     1       6.577  -0.278  -0.054  0.00  0.00    +0.024 A 
ATOM     31  C   UNL     1       6.421  -3.054   0.436  0.00  0.00    +0.005 A 
ATOM     32  C   UNL     1       7.736  -1.054   0.039  0.00  0.00    +0.002 A 
ATOM     33  C   UNL     1       7.660  -2.432   0.283  0.00  0.00    +0.000 A 
ENDBRANCH  18  20
ENDBRANCH  15  18
ENDBRANCH  12  15
BRANCH   5  16
ATOM     16  C   UNL     1      -4.531   0.642  -0.734  0.00  0.00    +0.120 C 
BRANCH  16  19
ATOM      1 CL   UNL     1      -5.189  -4.522  -0.481  0.00  0.00    -0.084 Cl
ATOM     19  C   UNL     1      -5.368  -0.530  -0.295  0.00  0.00    -0.032 A 
ATOM     21  C   UNL     1      -4.941  -1.831  -0.559  0.00  0.00    +0.025 A 
ATOM     22  C   UNL     1      -6.571  -0.315   0.378  0.00  0.00    +0.005 A 
ATOM     27  C   UNL     1      -5.716  -2.917  -0.152  0.00  0.00    +0.041 A 
ATOM     28  C   UNL     1      -7.346  -1.400   0.785  0.00  0.00    +0.002 A 
ATOM     30  C   UNL     1      -6.919  -2.701   0.521  0.00  0.00    +0.020 A 
ENDBRANCH  16  19
ENDBRANCH   5  16
TORSDOF 5
