REMARK  Name = 7687218
REMARK  5 active torsions:
REMARK  status: ('A' for Active; 'I' for Inactive)
REMARK    1  A    between atoms: O_4  and  C_24
REMARK    2  A    between atoms: O_4  and  C_34
REMARK    3  A    between atoms: N_7  and  C_22
REMARK    4  A    between atoms: C_15  and  C_20
REMARK    5  A    between atoms: C_21  and  C_23
REMARK                            x       y       z     vdW  Elec       q    Type
REMARK                         _______ _______ _______ _____ _____    ______ ____
ROOT
ATOM      2  O   UNL     1      -2.181  -3.704  -2.477  0.00  0.00    -0.268 OA
ATOM      3  O   UNL     1      -4.074  -0.533   0.984  0.00  0.00    -0.252 OA
ATOM      5  N   UNL     1      -1.946  -1.058   1.718  0.00  0.00    -0.284 N 
ATOM      6  N   UNL     1      -0.955  -2.853  -0.671  0.00  0.00    -0.311 N 
ATOM      7  N   UNL     1      -2.341   0.948   0.545  0.00  0.00    -0.266 N 
ATOM      8  C   UNL     1      -1.517  -3.503   1.745  0.00  0.00    +0.027 C 
ATOM      9  C   UNL     1       0.326  -1.937   1.288  0.00  0.00    +0.054 C 
ATOM     10  C   UNL     1      -0.040  -3.242   1.998  0.00  0.00    +0.018 C 
ATOM     11  C   UNL     1      -2.382  -2.341   2.272  0.00  0.00    +0.114 C 
ATOM     12  C   UNL     1      -1.704  -3.728   0.244  0.00  0.00    +0.130 C 
ATOM     13  C   UNL     1      -0.510  -0.791   1.891  0.00  0.00    +0.119 C 
ATOM     14  C   UNL     1       0.090  -2.017  -0.224  0.00  0.00    +0.034 A 
ATOM     15  C   UNL     1       0.821  -1.294  -1.115  0.00  0.00    -0.005 A 
ATOM     16  C   UNL     1      -1.292  -2.979  -2.030  0.00  0.00    +0.252 A 
ATOM     17  C   UNL     1      -2.884  -0.220   1.080  0.00  0.00    +0.307 C 
ATOM     18  C   UNL     1       0.492  -1.406  -2.527  0.00  0.00    +0.015 A 
ATOM     19  C   UNL     1      -0.494  -2.178  -2.982  0.00  0.00    +0.071 A 
ATOM     35  H   UNL     1      -1.367   0.940   0.265  0.00  0.00    +0.156 HD
ENDROOT
BRANCH   7  22
ATOM     22  C   UNL     1      -3.011   2.168   0.286  0.00  0.00    +0.077 A 
ATOM     24  C   UNL     1      -2.353   3.213  -0.359  0.00  0.00    +0.141 A 
ATOM     25  C   UNL     1      -4.339   2.312   0.681  0.00  0.00    +0.027 A 
ATOM     28  C   UNL     1      -3.027   4.409  -0.608  0.00  0.00    +0.047 A 
ATOM     29  C   UNL     1      -5.013   3.508   0.432  0.00  0.00    +0.002 A 
ATOM     30  C   UNL     1      -4.357   4.556  -0.213  0.00  0.00    +0.004 A 
BRANCH  24   4
ATOM      4  O   UNL     1      -1.054   3.090  -0.752  0.00  0.00    -0.493 OA
ATOM     34  C   UNL     1      -0.820   2.580  -2.063  0.00  0.00    +0.277 C 
ENDBRANCH  24   4
ENDBRANCH   7  22
BRANCH  15  20
ATOM     20  C   UNL     1       1.887  -0.392  -0.714  0.00  0.00    +0.010 C 
ATOM     21  C   UNL     1       3.155  -0.786  -0.610  0.00  0.00    +0.008 C 
BRANCH  21  23
ATOM      1 CL   UNL     1       7.662   2.749   1.057  0.00  0.00    -0.084 Cl
ATOM     23  C   UNL     1       4.268   0.087  -0.198  0.00  0.00    -0.025 A 
ATOM     26  C   UNL     1       4.123   1.462  -0.292  0.00  0.00    +0.009 A 
ATOM     27  C   UNL     1       5.439  -0.483   0.276  0.00  0.00    +0.009 A 
ATOM     31  C   UNL     1       5.177   2.288   0.097  0.00  0.00    +0.020 A 
ATOM     32  C   UNL     1       6.493   0.344   0.666  0.00  0.00    +0.020 A 
ATOM     33  C   UNL     1       6.362   1.729   0.576  0.00  0.00    +0.041 A 
ENDBRANCH  21  23
ENDBRANCH  15  20
TORSDOF 4
