REMARK  Name = 75536722
REMARK  8 active torsions:
REMARK  status: ('A' for Active; 'I' for Inactive)
REMARK    1  A    between atoms: O_2  and  C_12
REMARK    2  A    between atoms: N_4  and  C_7
REMARK    3  A    between atoms: N_4  and  C_8
REMARK    4  A    between atoms: N_5  and  C_15
REMARK    5  A    between atoms: N_6  and  C_17
REMARK    6  A    between atoms: C_13  and  C_15
REMARK    7  A    between atoms: C_17  and  C_18
REMARK    8  A    between atoms: C_17  and  C_19
REMARK                            x       y       z     vdW  Elec       q    Type
REMARK                         _______ _______ _______ _____ _____    ______ ____
ROOT
ATOM      1  O   UNL     1      -0.356   0.951  -0.492  0.00  0.00    -0.371 OA
ATOM      8  C   UNL     1      -2.282  -0.221   0.253  0.00  0.00    +0.111 C 
ATOM     12  C   UNL     1      -1.254  -1.222  -0.240  0.00  0.00    +0.164 C 
ATOM     13  C   UNL     1       0.022  -0.395  -0.159  0.00  0.00    +0.165 C 
ATOM     14  C   UNL     1      -1.786   1.062  -0.392  0.00  0.00    +0.181 C 
ENDROOT
BRANCH  12   2
ATOM      2  O   UNL     1      -1.184  -2.379   0.572  0.00  0.00    -0.388 OA
ATOM     21  H   UNL     1      -0.999  -2.101   1.485  0.00  0.00    +0.210 HD
ENDBRANCH  12   2
BRANCH   8   4
ATOM      4  N   UNL     1      -3.647  -0.554  -0.123  0.00  0.00    -0.306 NA
ATOM     20  H   UNL     1      -3.797  -1.545   0.067  0.00  0.00    +0.123 HD
BRANCH   4   7
ATOM      7  C   UNL     1      -4.574   0.309   0.595  0.00  0.00    +0.054 C 
ATOM      9  C   UNL     1      -5.985  -0.317   0.555  0.00  0.00    +0.019 C 
ATOM     10  C   UNL     1      -5.108   1.393  -0.366  0.00  0.00    +0.019 C 
ATOM     11  C   UNL     1      -6.508   1.099   0.220  0.00  0.00    +0.003 C 
ENDBRANCH   4   7
ENDBRANCH   8   4
BRANCH  13  15
ATOM     15  C   UNL     1       1.108  -0.872  -1.108  0.00  0.00    +0.140 C 
BRANCH  15   5
ATOM      3  O   UNL     1       3.351  -1.293   0.658  0.00  0.00    -0.253 OA
ATOM      5  N   UNL     1       2.287  -0.063  -1.000  0.00  0.00    -0.297 N 
ATOM      6  N   UNL     1       4.352   0.608  -0.217  0.00  0.00    -0.297 N 
ATOM     16  C   UNL     1       3.334  -0.336  -0.115  0.00  0.00    +0.300 C 
ATOM     22  H   UNL     1       2.359   0.761  -1.590  0.00  0.00    +0.150 HD
ATOM     23  H   UNL     1       4.280   1.319  -0.940  0.00  0.00    +0.150 HD
BRANCH   6  17
ATOM     17  C   UNL     1       5.550   0.558   0.587  0.00  0.00    +0.068 C 
ATOM     18  C   UNL     1       6.062   1.965   0.864  0.00  0.00    +0.027 C 
ATOM     19  C   UNL     1       6.615  -0.293  -0.093  0.00  0.00    +0.027 C 
ENDBRANCH   6  17
ENDBRANCH  15   5
ENDBRANCH  13  15
TORSDOF 6
