REMARK  Name = 45784338
REMARK  3 active torsions:
REMARK  status: ('A' for Active; 'I' for Inactive)
REMARK    1  A    between atoms: N_4  and  C_10
REMARK    2  A    between atoms: C_6  and  C_11
REMARK    3  A    between atoms: C_10  and  C_12
REMARK                            x       y       z     vdW  Elec       q    Type
REMARK                         _______ _______ _______ _____ _____    ______ ____
ROOT
ATOM      4  N   UNL     1      -1.635  -0.251  -0.178  0.00  0.00    -0.297 NA
ATOM      6  C   UNL     1       0.543  -0.866   0.436  0.00  0.00    +0.090 C 
ATOM      7  C   UNL     1      -0.162  -0.207   1.634  0.00  0.00    +0.029 C 
ATOM      8  C   UNL     1      -0.321  -0.493  -0.776  0.00  0.00    +0.097 C 
ATOM      9  C   UNL     1      -1.360   0.519   1.035  0.00  0.00    +0.085 C 
ENDROOT
BRANCH   6  11
ATOM      2  F   UNL     1       7.290   1.569  -0.441  0.00  0.00    -0.205 F 
ATOM      3  O   UNL     1       2.891  -1.507   0.316  0.00  0.00    -0.439 OA
ATOM      5  N   UNL     1       2.508   0.713   0.072  0.00  0.00    -0.213 NA
ATOM     11  C   UNL     1       1.995  -0.482   0.265  0.00  0.00    +0.201 A 
ATOM     13  C   UNL     1       3.857   0.469  -0.012  0.00  0.00    +0.112 A 
ATOM     14  C   UNL     1       4.096  -0.889   0.137  0.00  0.00    +0.156 A 
ATOM     17  C   UNL     1       4.946   1.330  -0.212  0.00  0.00    +0.070 A 
ATOM     18  C   UNL     1       5.353  -1.481   0.104  0.00  0.00    +0.051 A 
ATOM     21  C   UNL     1       6.231   0.770  -0.251  0.00  0.00    +0.126 A 
ATOM     22  C   UNL     1       6.427  -0.608  -0.096  0.00  0.00    +0.042 A 
ENDBRANCH   6  11
BRANCH   4  10
ATOM     10  C   UNL     1      -2.538   0.445  -1.083  0.00  0.00    +0.119 C 
BRANCH  10  12
ATOM      1 CL   UNL     1      -8.281  -0.108   0.622  0.00  0.00    -0.084 Cl
ATOM     12  C   UNL     1      -3.975   0.308  -0.657  0.00  0.00    -0.033 A 
ATOM     15  C   UNL     1      -4.743  -0.758  -1.127  0.00  0.00    +0.006 A 
ATOM     16  C   UNL     1      -4.539   1.245   0.208  0.00  0.00    +0.006 A 
ATOM     19  C   UNL     1      -6.074  -0.886  -0.733  0.00  0.00    +0.020 A 
ATOM     20  C   UNL     1      -5.871   1.117   0.603  0.00  0.00    +0.020 A 
ATOM     23  C   UNL     1      -6.638   0.052   0.132  0.00  0.00    +0.041 A 
ENDBRANCH  10  12
ENDBRANCH   4  10
TORSDOF 3
