REMARK  Name = 45784270
REMARK  4 active torsions:
REMARK  status: ('A' for Active; 'I' for Inactive)
REMARK    1  A    between atoms: N_4  and  C_13
REMARK    2  A    between atoms: C_8  and  C_12
REMARK    3  A    between atoms: C_13  and  C_15
REMARK    4  A    between atoms: C_21  and  C_25
REMARK                            x       y       z     vdW  Elec       q    Type
REMARK                         _______ _______ _______ _____ _____    ______ ____
ROOT
ATOM      5  N   UNL     1       1.671  -1.188   0.416  0.00  0.00    -0.342 N 
ATOM      6  N   UNL     1       1.052   0.918   0.071  0.00  0.00    -0.232 NA
ATOM     12  C   UNL     1       0.635  -0.300   0.334  0.00  0.00    +0.113 A 
ATOM     14  C   UNL     1       2.834  -0.498   0.190  0.00  0.00    +0.067 A 
ATOM     16  C   UNL     1       2.421   0.815  -0.022  0.00  0.00    +0.089 A 
ATOM     17  C   UNL     1       4.170  -0.896   0.155  0.00  0.00    +0.040 A 
ATOM     18  C   UNL     1       3.386   1.802  -0.287  0.00  0.00    +0.030 A 
ATOM     21  C   UNL     1       5.117   0.099  -0.110  0.00  0.00    +0.057 A 
ATOM     22  C   UNL     1       4.734   1.424  -0.328  0.00  0.00    +0.014 A 
ATOM     26  H   UNL     1       1.597  -2.179   0.608  0.00  0.00    +0.167 HD
ENDROOT
BRANCH  12   8
ATOM      4  N   UNL     1      -3.003  -0.268  -0.103  0.00  0.00    -0.297 NA
ATOM      8  C   UNL     1      -0.796  -0.741   0.535  0.00  0.00    +0.070 C 
ATOM      9  C   UNL     1      -1.530  -0.048   1.696  0.00  0.00    +0.028 C 
ATOM     10  C   UNL     1      -1.680  -0.482  -0.693  0.00  0.00    +0.096 C 
ATOM     11  C   UNL     1      -2.762   0.584   1.062  0.00  0.00    +0.085 C 
BRANCH   4  13
ATOM     13  C   UNL     1      -3.940   0.330  -1.043  0.00  0.00    +0.119 C 
BRANCH  13  15
ATOM      7  N   UNL     1      -8.020  -0.186   0.215  0.00  0.00    -0.263 NA
ATOM     15  C   UNL     1      -5.368   0.149  -0.602  0.00  0.00    -0.031 A 
ATOM     19  C   UNL     1      -5.995  -1.082  -0.755  0.00  0.00    +0.024 A 
ATOM     20  C   UNL     1      -6.065   1.213  -0.041  0.00  0.00    +0.024 A 
ATOM     23  C   UNL     1      -7.310  -1.197  -0.335  0.00  0.00    +0.111 A 
ATOM     24  C   UNL     1      -7.377   0.996   0.348  0.00  0.00    +0.111 A 
ENDBRANCH  13  15
ENDBRANCH   4  13
ENDBRANCH  12   8
BRANCH  21  25
ATOM      1  F   UNL     1       7.364   0.807  -0.429  0.00  0.00    -0.166 F 
ATOM      2  F   UNL     1       7.036  -0.793   1.006  0.00  0.00    -0.166 F 
ATOM      3  F   UNL     1       6.860  -1.192  -1.119  0.00  0.00    -0.166 F 
ATOM     25  C   UNL     1       6.565  -0.265  -0.161  0.00  0.00    +0.417 C 
ENDBRANCH  21  25
TORSDOF 4
