REMARK  Name = 11882062
REMARK  11 active torsions:
REMARK  status: ('A' for Active; 'I' for Inactive)
REMARK    1  A    between atoms: S_1  and  C_20
REMARK    2  A    between atoms: S_1  and  C_26
REMARK    3  A    between atoms: N_8  and  C_12
REMARK    4  A    between atoms: N_9  and  C_18
REMARK    5  A    between atoms: N_10  and  C_24
REMARK    6  A    between atoms: C_13  and  C_16
REMARK    7  A    between atoms: C_17  and  C_20
REMARK    8  A    between atoms: C_18  and  C_21
REMARK    9  A    between atoms: C_18  and  C_22
REMARK   10  A    between atoms: C_21  and  C_23
REMARK   11  A    between atoms: C_24  and  C_28
REMARK                            x       y       z     vdW  Elec       q    Type
REMARK                         _______ _______ _______ _____ _____    ______ ____
ROOT
ATOM      4  O   UNL     1      -0.704   2.170  -1.700  0.00  0.00    -0.275 OA
ATOM      7  N   UNL     1       0.734   2.204   0.114  0.00  0.00    -0.287 N 
ATOM     12  C   UNL     1       1.932   0.523   1.280  0.00  0.00    +0.105 C 
ATOM     13  C   UNL     1       0.751   0.763   0.339  0.00  0.00    +0.182 C 
ATOM     14  C   UNL     1       2.049   1.842   2.048  0.00  0.00    +0.043 C 
ATOM     15  C   UNL     1       1.639   2.896   1.027  0.00  0.00    +0.110 C 
ATOM     17  C   UNL     1       0.054   2.784  -0.947  0.00  0.00    +0.226 C 
ENDROOT
BRANCH  12   8
ATOM      5  O   UNL     1       2.960  -2.075   0.559  0.00  0.00    -0.253 OA
ATOM      8  N   UNL     1       3.136   0.240   0.536  0.00  0.00    -0.294 N 
ATOM     10  N   UNL     1       4.749  -1.037  -0.492  0.00  0.00    -0.296 N 
ATOM     19  C   UNL     1       3.559  -1.052   0.231  0.00  0.00    +0.300 C 
ATOM     31  H   UNL     1       3.670   1.019   0.161  0.00  0.00    +0.151 HD
ATOM     33  H   UNL     1       5.162  -0.141  -0.734  0.00  0.00    +0.151 HD
BRANCH  10  24
ATOM     24  C   UNL     1       5.409  -2.241  -0.938  0.00  0.00    +0.132 C 
BRANCH  24  28
ATOM     28  C   UNL     1       4.898  -2.605  -2.293  0.00  0.00    -0.016 C 
ATOM     30  C   UNL     1       4.308  -3.770  -2.579  0.00  0.00    +0.005 C 
ENDBRANCH  24  28
ENDBRANCH  10  24
ENDBRANCH  12   8
BRANCH  13  16
ATOM      3  O   UNL     1      -1.137   1.209   1.731  0.00  0.00    -0.274 OA
ATOM      9  N   UNL     1      -0.972  -0.865   0.687  0.00  0.00    -0.302 N 
ATOM     16  C   UNL     1      -0.553   0.418   0.995  0.00  0.00    +0.236 C 
ATOM     32  H   UNL     1      -0.364  -1.459   0.131  0.00  0.00    +0.150 HD
BRANCH   9  18
ATOM     18  C   UNL     1      -2.186  -1.448   1.211  0.00  0.00    +0.163 C 
BRANCH  18  22
ATOM      6  O   UNL     1      -0.762  -2.607   2.803  0.00  0.00    -0.274 OA
ATOM     11  N   UNL     1      -2.845  -1.922   3.488  0.00  0.00    -0.328 N 
ATOM     22  C   UNL     1      -1.839  -2.070   2.556  0.00  0.00    +0.231 C 
ATOM     34  H   UNL     1      -2.736  -2.279   4.432  0.00  0.00    +0.145 HD
ATOM     35  H   UNL     1      -3.729  -1.473   3.272  0.00  0.00    +0.145 HD
ENDBRANCH  18  22
BRANCH  18  21
ATOM     21  C   UNL     1      -2.778  -2.504   0.270  0.00  0.00    +0.074 C 
BRANCH  21  23
ATOM      2  S   UNL     1      -5.188  -2.308  -1.114  0.00  0.00    -0.102 S 
ATOM     23  C   UNL     1      -3.545  -1.887  -0.875  0.00  0.00    -0.008 A 
ATOM     25  C   UNL     1      -3.101  -0.983  -1.816  0.00  0.00    +0.011 A 
ATOM     27  C   UNL     1      -4.123  -0.632  -2.744  0.00  0.00    +0.008 A 
ATOM     29  C   UNL     1      -5.309  -1.280  -2.478  0.00  0.00    +0.045 A 
ENDBRANCH  21  23
ENDBRANCH  18  21
ENDBRANCH   9  18
ENDBRANCH  13  16
BRANCH  17  20
ATOM     20  C   UNL     1       0.287   4.261  -1.139  0.00  0.00    +0.164 C 
BRANCH  20   1
ATOM      1  S   UNL     1      -0.957   5.140  -0.182  0.00  0.00    -0.155 S 
ATOM     26  C   UNL     1      -0.466   6.837  -0.576  0.00  0.00    +0.085 C 
ENDBRANCH  20   1
ENDBRANCH  17  20
TORSDOF 10
