REMARK  Name = 45783719
REMARK  7 active torsions:
REMARK  status: ('A' for Active; 'I' for Inactive)
REMARK    1  A    between atoms: O_2  and  C_26
REMARK    2  A    between atoms: O_2  and  C_27
REMARK    3  A    between atoms: N_9  and  C_24
REMARK    4  A    between atoms: N_9  and  C_25
REMARK    5  A    between atoms: C_10  and  C_14
REMARK    6  A    between atoms: C_16  and  C_17
REMARK    7  A    between atoms: C_25  and  C_26
REMARK                            x       y       z     vdW  Elec       q    Type
REMARK                         _______ _______ _______ _____ _____    ______ ____
ROOT
ATOM      1  O   UNL     1       1.847   2.222   1.513  0.00  0.00    -0.336 OA
ATOM      4  N   UNL     1       1.071   0.911  -0.129  0.00  0.00    -0.190 NA
ATOM      7  N   UNL     1       0.459   2.162   1.685  0.00  0.00    -0.056 NA
ATOM     14  C   UNL     1       2.124   1.458   0.423  0.00  0.00    +0.248 A 
ATOM     16  C   UNL     1       0.073   1.371   0.680  0.00  0.00    +0.204 A 
ENDROOT
BRANCH  14  10
ATOM      3  N   UNL     1       3.917   0.120  -0.703  0.00  0.00    -0.288 N 
ATOM      5  N   UNL     1       3.784  -1.212   1.194  0.00  0.00    -0.223 NA
ATOM      6  N   UNL     1       4.588  -2.094  -0.900  0.00  0.00    -0.223 NA
ATOM     10  C   UNL     1       3.585   1.358   0.021  0.00  0.00    +0.165 C 
ATOM     11  C   UNL     1       3.983   2.467  -0.970  0.00  0.00    +0.034 C 
ATOM     12  C   UNL     1       3.786   1.827  -2.335  0.00  0.00    +0.021 C 
ATOM     13  C   UNL     1       4.220   0.382  -2.112  0.00  0.00    +0.109 C 
ATOM     15  C   UNL     1       4.104  -1.116  -0.110  0.00  0.00    +0.218 A 
ATOM     18  C   UNL     1       3.979  -2.431   1.739  0.00  0.00    +0.116 A 
ATOM     19  C   UNL     1       4.758  -3.286  -0.290  0.00  0.00    +0.116 A 
ATOM     20  C   UNL     1       4.468  -3.515   1.039  0.00  0.00    +0.039 A 
ENDBRANCH  14  10
BRANCH  16  17
ATOM      8  N   UNL     1      -3.614   1.206   1.128  0.00  0.00    -0.240 NA
ATOM     17  C   UNL     1      -1.300   1.022   0.455  0.00  0.00    +0.041 A 
ATOM     21  C   UNL     1      -1.665   0.197  -0.603  0.00  0.00    +0.016 A 
ATOM     22  C   UNL     1      -2.303   1.496   1.284  0.00  0.00    +0.124 A 
ATOM     23  C   UNL     1      -3.005  -0.124  -0.796  0.00  0.00    +0.044 A 
ATOM     24  C   UNL     1      -3.932   0.402   0.089  0.00  0.00    +0.119 A 
BRANCH  24   9
ATOM      9  N   UNL     1      -5.292   0.066  -0.121  0.00  0.00    -0.327 N 
ATOM     28  H   UNL     1      -5.960   0.454   0.535  0.00  0.00    +0.148 HD
BRANCH   9  25
ATOM     25  C   UNL     1      -5.722  -0.774  -1.191  0.00  0.00    +0.131 C 
BRANCH  25  26
ATOM     26  C   UNL     1      -7.234  -0.914  -1.167  0.00  0.00    +0.178 C 
BRANCH  26   2
ATOM      2  O   UNL     1      -7.634  -1.521   0.056  0.00  0.00    -0.381 OA
ATOM     27  C   UNL     1      -9.045  -1.679   0.121  0.00  0.00    +0.194 C 
ENDBRANCH  26   2
ENDBRANCH  25  26
ENDBRANCH   9  25
ENDBRANCH  24   9
ENDBRANCH  16  17
TORSDOF 6
