REMARK  Name = 26743428
REMARK  11 active torsions:
REMARK  status: ('A' for Active; 'I' for Inactive)
REMARK    1  A    between atoms: S_1  and  C_23
REMARK    2  A    between atoms: S_1  and  C_30
REMARK    3  A    between atoms: O_6  and  C_31
REMARK    4  A    between atoms: N_8  and  C_13
REMARK    5  A    between atoms: N_9  and  C_21
REMARK    6  A    between atoms: C_11  and  C_14
REMARK    7  A    between atoms: C_17  and  C_19
REMARK    8  A    between atoms: C_18  and  C_20
REMARK    9  A    between atoms: C_22  and  C_23
REMARK   10  A    between atoms: C_28  and  C_29
REMARK   11  A    between atoms: C_30  and  C_31
REMARK                            x       y       z     vdW  Elec       q    Type
REMARK                         _______ _______ _______ _____ _____    ______ ____
ROOT
ATOM      9  N   UNL     1      -2.025  -0.523   0.695  0.00  0.00    -0.236 N 
ATOM     10  N   UNL     1      -1.616  -1.658   1.289  0.00  0.00    -0.171 NA
ATOM     14  C   UNL     1       0.087  -0.146   1.106  0.00  0.00    +0.003 A 
ATOM     17  C   UNL     1      -1.043   0.413   0.561  0.00  0.00    +0.046 A 
ATOM     18  C   UNL     1      -0.325  -1.421   1.538  0.00  0.00    +0.064 A 
ATOM     19  C   UNL     1      -1.261   1.734  -0.063  0.00  0.00    +0.066 C 
ATOM     20  C   UNL     1       0.486  -2.458   2.199  0.00  0.00    +0.068 C 
ENDROOT
BRANCH   9  21
ATOM     21  C   UNL     1      -3.352  -0.398   0.282  0.00  0.00    +0.066 A 
ATOM     24  C   UNL     1      -4.385  -0.492   1.214  0.00  0.00    +0.028 A 
ATOM     25  C   UNL     1      -3.644  -0.181  -1.065  0.00  0.00    +0.028 A 
ATOM     26  C   UNL     1      -5.711  -0.370   0.799  0.00  0.00    +0.014 A 
ATOM     27  C   UNL     1      -4.971  -0.059  -1.479  0.00  0.00    +0.014 A 
ATOM     28  C   UNL     1      -6.004  -0.154  -0.547  0.00  0.00    +0.055 A 
BRANCH  28  29
ATOM      2  F   UNL     1      -8.307  -0.141   0.043  0.00  0.00    -0.166 F 
ATOM      3  F   UNL     1      -7.705   1.175  -1.579  0.00  0.00    -0.166 F 
ATOM      4  F   UNL     1      -7.799  -0.967  -1.903  0.00  0.00    -0.166 F 
ATOM     29  C   UNL     1      -7.422  -0.024  -0.989  0.00  0.00    +0.417 C 
ENDBRANCH  28  29
ENDBRANCH   9  21
BRANCH  14  11
ATOM     11  C   UNL     1       1.463   0.470   1.215  0.00  0.00    +0.047 C 
ATOM     12  C   UNL     1       2.059   0.875  -0.149  0.00  0.00    +0.039 C 
ATOM     13  C   UNL     1       2.881   2.143   0.113  0.00  0.00    +0.097 C 
ATOM     15  C   UNL     1       1.514   1.758   1.985  0.00  0.00    -0.021 C 
ATOM     16  C   UNL     1       2.291   2.664   1.382  0.00  0.00    -0.009 C 
BRANCH  13   8
ATOM      5  O   UNL     1       4.987   2.174  -1.873  0.00  0.00    -0.275 OA
ATOM      8  N   UNL     1       4.278   1.867   0.320  0.00  0.00    -0.308 N 
ATOM     22  C   UNL     1       5.224   1.905  -0.697  0.00  0.00    +0.223 C 
ATOM     32  H   UNL     1       4.576   1.589   1.251  0.00  0.00    +0.149 HD
BRANCH  22  23
ATOM     23  C   UNL     1       6.618   1.560  -0.227  0.00  0.00    +0.165 C 
BRANCH  23   1
ATOM      1  S   UNL     1       7.210   0.122  -1.151  0.00  0.00    -0.140 S 
BRANCH   1  30
ATOM     30  C   UNL     1       6.352  -1.168  -0.219  0.00  0.00    +0.189 C 
BRANCH  30  31
ATOM      7  O   UNL     1       7.745  -2.772  -1.359  0.00  0.00    -0.250 OA
ATOM     31  C   UNL     1       6.686  -2.511  -0.803  0.00  0.00    +0.315 C 
BRANCH  31   6
ATOM      6  O   UNL     1       5.689  -3.417  -0.637  0.00  0.00    -0.480 OA
ATOM     33  H   UNL     1       5.922  -4.291  -1.016  0.00  0.00    +0.295 HD
ENDBRANCH  31   6
ENDBRANCH  30  31
ENDBRANCH   1  30
ENDBRANCH  23   1
ENDBRANCH  22  23
ENDBRANCH  13   8
ENDBRANCH  14  11
TORSDOF 9
