REMARK  Name = 71693424
REMARK  9 active torsions:
REMARK  status: ('A' for Active; 'I' for Inactive)
REMARK    1  A    between atoms: O_2  and  C_11
REMARK    2  A    between atoms: O_5  and  C_27
REMARK    3  A    between atoms: O_5  and  C_28
REMARK    4  A    between atoms: N_6  and  C_13
REMARK    5  A    between atoms: N_7  and  C_21
REMARK    6  A    between atoms: C_9  and  C_11
REMARK    7  A    between atoms: C_10  and  C_12
REMARK    8  A    between atoms: C_13  and  C_16
REMARK    9  A    between atoms: C_26  and  C_27
REMARK                            x       y       z     vdW  Elec       q    Type
REMARK                         _______ _______ _______ _____ _____    ______ ____
ROOT
ATOM      1  O   UNL     1       2.077  -1.840  -1.702  0.00  0.00    -0.361 OA
ATOM      3  O   UNL     1       4.375   0.685  -1.923  0.00  0.00    -0.273 OA
ATOM      6  N   UNL     1       3.244  -0.065  -0.024  0.00  0.00    -0.287 N 
ATOM      9  C   UNL     1       2.648  -1.222   0.652  0.00  0.00    +0.135 C 
ATOM     10  C   UNL     1       1.798  -2.083  -0.319  0.00  0.00    +0.171 C 
ATOM     14  C   UNL     1       3.737  -0.176  -1.322  0.00  0.00    +0.242 C 
ATOM     15  C   UNL     1       3.425  -1.509  -1.961  0.00  0.00    +0.256 C 
ENDROOT
BRANCH  10  12
ATOM     12  C   UNL     1       0.314  -1.838  -0.113  0.00  0.00    -0.017 A 
ATOM     17  C   UNL     1      -0.398  -2.607   0.807  0.00  0.00    +0.008 A 
ATOM     18  C   UNL     1      -0.337  -0.845  -0.845  0.00  0.00    +0.008 A 
ATOM     19  C   UNL     1      -1.762  -2.383   0.996  0.00  0.00    +0.023 A 
ATOM     20  C   UNL     1      -1.701  -0.622  -0.656  0.00  0.00    +0.023 A 
ATOM     21  C   UNL     1      -2.413  -1.391   0.264  0.00  0.00    +0.033 A 
BRANCH  21   7
ATOM      4  O   UNL     1      -4.262   0.596  -1.034  0.00  0.00    -0.273 OA
ATOM      7  N   UNL     1      -3.777  -1.167   0.452  0.00  0.00    -0.284 N 
ATOM     26  C   UNL     1      -4.596  -0.224  -0.185  0.00  0.00    +0.243 C 
ATOM     30  H   UNL     1      -4.226  -1.769   1.140  0.00  0.00    +0.155 HD
BRANCH  26  27
ATOM     27  C   UNL     1      -6.029  -0.293   0.296  0.00  0.00    +0.255 C 
BRANCH  27   5
ATOM      5  O   UNL     1      -6.785   0.686  -0.386  0.00  0.00    -0.374 OA
ATOM     28  C   UNL     1      -8.151   0.678   0.019  0.00  0.00    +0.194 C 
ENDBRANCH  27   5
ENDBRANCH  26  27
ENDBRANCH  21   7
ENDBRANCH  10  12
BRANCH   9  11
ATOM     11  C   UNL     1       3.731  -2.066   1.337  0.00  0.00    +0.181 C 
BRANCH  11   2
ATOM      2  O   UNL     1       4.156  -1.381   2.498  0.00  0.00    -0.393 OA
ATOM     29  H   UNL     1       4.836  -1.930   2.924  0.00  0.00    +0.209 HD
ENDBRANCH  11   2
ENDBRANCH   9  11
BRANCH   6  13
ATOM     13  C   UNL     1       3.427   1.158   0.743  0.00  0.00    +0.145 C 
BRANCH  13  16
ATOM      8  N   UNL     1       1.099   3.713  -0.792  0.00  0.00    -0.263 NA
ATOM     16  C   UNL     1       2.272   2.103   0.579  0.00  0.00    -0.012 A 
ATOM     22  C   UNL     1       1.326   2.261   1.586  0.00  0.00    +0.008 A 
ATOM     23  C   UNL     1       2.114   2.845  -0.581  0.00  0.00    +0.115 A 
ATOM     24  C   UNL     1       0.268   3.145   1.405  0.00  0.00    +0.020 A 
ATOM     25  C   UNL     1       0.200   3.840   0.209  0.00  0.00    +0.111 A 
ENDBRANCH  13  16
ENDBRANCH   6  13
TORSDOF 8
