REMARK  Name = 45783414
REMARK  9 active torsions:
REMARK  status: ('A' for Active; 'I' for Inactive)
REMARK    1  A    between atoms: O_3  and  C_21
REMARK    2  A    between atoms: O_3  and  C_25
REMARK    3  A    between atoms: O_4  and  C_26
REMARK    4  A    between atoms: O_4  and  C_27
REMARK    5  A    between atoms: N_5  and  C_13
REMARK    6  A    between atoms: C_9  and  C_14
REMARK    7  A    between atoms: C_13  and  C_15
REMARK    8  A    between atoms: C_16  and  C_19
REMARK    9  A    between atoms: C_25  and  C_26
REMARK                            x       y       z     vdW  Elec       q    Type
REMARK                         _______ _______ _______ _____ _____    ______ ____
ROOT
ATOM      1  O   UNL     1      -0.720   2.543   0.802  0.00  0.00    -0.336 OA
ATOM      6  N   UNL     1       0.058   0.453   1.017  0.00  0.00    -0.190 NA
ATOM      7  N   UNL     1       0.657   2.611   0.551  0.00  0.00    -0.056 NA
ATOM     14  C   UNL     1      -0.989   1.238   1.067  0.00  0.00    +0.245 A 
ATOM     16  C   UNL     1       1.044   1.341   0.697  0.00  0.00    +0.207 A 
ENDROOT
BRANCH  16  19
ATOM      8  N   UNL     1       4.009  -0.776  -0.088  0.00  0.00    -0.221 NA
ATOM     19  C   UNL     1       2.407   0.925   0.531  0.00  0.00    +0.084 A 
ATOM     21  C   UNL     1       2.740  -0.343   0.083  0.00  0.00    +0.226 A 
ATOM     22  C   UNL     1       3.443   1.806   0.823  0.00  0.00    +0.018 A 
ATOM     23  C   UNL     1       4.762   1.397   0.660  0.00  0.00    +0.021 A 
ATOM     24  C   UNL     1       4.989   0.107   0.206  0.00  0.00    +0.114 A 
BRANCH  21   3
ATOM      3  O   UNL     1       1.753  -1.246  -0.218  0.00  0.00    -0.474 OA
BRANCH   3  25
ATOM     25  C   UNL     1       2.176  -2.526  -0.671  0.00  0.00    +0.258 C 
BRANCH  25  26
ATOM     26  C   UNL     1       0.955  -3.389  -0.928  0.00  0.00    +0.200 C 
BRANCH  26   4
ATOM      4  O   UNL     1       0.230  -3.540   0.286  0.00  0.00    -0.380 OA
ATOM     27  C   UNL     1      -0.941  -4.323   0.099  0.00  0.00    +0.194 C 
ENDBRANCH  26   4
ENDBRANCH  25  26
ENDBRANCH   3  25
ENDBRANCH  21   3
ENDBRANCH  16  19
BRANCH  14   9
ATOM      5  N   UNL     1      -2.979  -0.127   0.460  0.00  0.00    -0.284 NA
ATOM      9  C   UNL     1      -2.432   0.895   1.375  0.00  0.00    +0.146 C 
ATOM     10  C   UNL     1      -2.614   0.298   2.782  0.00  0.00    +0.030 C 
ATOM     11  C   UNL     1      -3.327  -1.029   2.562  0.00  0.00    +0.017 C 
ATOM     12  C   UNL     1      -3.999  -0.854   1.216  0.00  0.00    +0.085 C 
BRANCH   5  13
ATOM     13  C   UNL     1      -3.509   0.434  -0.777  0.00  0.00    +0.159 C 
BRANCH  13  15
ATOM      2  O   UNL     1      -1.631  -0.296  -2.143  0.00  0.00    -0.467 OA
ATOM     15  C   UNL     1      -2.416   0.747  -1.764  0.00  0.00    +0.119 A 
ATOM     17  C   UNL     1      -2.019   1.904  -2.393  0.00  0.00    +0.046 A 
ATOM     18  C   UNL     1      -0.921   1.549  -3.212  0.00  0.00    +0.041 A 
ATOM     20  C   UNL     1      -0.724   0.201  -3.025  0.00  0.00    +0.195 A 
ENDBRANCH  13  15
ENDBRANCH   5  13
ENDBRANCH  14   9
TORSDOF 8
