REMARK  Name = 45361549
REMARK  8 active torsions:
REMARK  status: ('A' for Active; 'I' for Inactive)
REMARK    1  A    between atoms: O_1  and  C_11
REMARK    2  A    between atoms: N_4  and  C_15
REMARK    3  A    between atoms: C_8  and  C_18
REMARK    4  A    between atoms: C_10  and  C_20
REMARK    5  A    between atoms: C_13  and  C_19
REMARK    6  A    between atoms: C_19  and  C_21
REMARK    7  A    between atoms: C_19  and  C_22
REMARK    8  A    between atoms: C_23  and  C_28
REMARK                            x       y       z     vdW  Elec       q    Type
REMARK                         _______ _______ _______ _____ _____    ______ ____
ROOT
ATOM      8  C   UNL     1       0.383  -1.724   0.632  0.00  0.00    -0.027 C 
ATOM      9  C   UNL     1       0.306  -0.263   0.077  0.00  0.00    +0.028 C 
ATOM     10  C   UNL     1      -1.127   0.045  -0.488  0.00  0.00    +0.012 C 
ATOM     11  C   UNL     1       1.485   0.035  -0.893  0.00  0.00    +0.122 C 
ATOM     12  C   UNL     1       1.768  -1.957   1.281  0.00  0.00    +0.007 C 
ATOM     13  C   UNL     1       2.863  -0.298  -0.274  0.00  0.00    +0.029 C 
ATOM     14  C   UNL     1      -0.688  -1.903   1.732  0.00  0.00    +0.009 C 
ATOM     15  C   UNL     1      -2.203  -0.210   0.605  0.00  0.00    +0.076 C 
ATOM     16  C   UNL     1       2.924  -1.704   0.323  0.00  0.00    +0.007 C 
ATOM     17  C   UNL     1      -2.098  -1.592   1.250  0.00  0.00    +0.023 C 
ATOM     18  C   UNL     1       0.165  -2.791  -0.471  0.00  0.00    +0.011 C 
ATOM     20  C   UNL     1      -1.283   1.478  -1.025  0.00  0.00    +0.010 C 
ENDROOT
BRANCH  15   4
ATOM      3  O   UNL     1      -4.500   0.730   2.049  0.00  0.00    -0.268 OA
ATOM      4  N   UNL     1      -3.545  -0.048   0.085  0.00  0.00    -0.307 N 
ATOM     23  C   UNL     1      -4.590   0.415   0.865  0.00  0.00    +0.264 C 
ATOM     32  H   UNL     1      -3.731  -0.340  -0.871  0.00  0.00    +0.149 HD
BRANCH  23  28
ATOM      6  N   UNL     1      -5.954   0.122  -1.103  0.00  0.00    -0.247 NA
ATOM      7  N   UNL     1      -8.234   1.028   0.255  0.00  0.00    -0.259 NA
ATOM     28  C   UNL     1      -5.911   0.499   0.190  0.00  0.00    +0.143 A 
ATOM     29  C   UNL     1      -7.031   0.945   0.857  0.00  0.00    +0.143 A 
ATOM     30  C   UNL     1      -7.157   0.205  -1.705  0.00  0.00    +0.131 A 
ATOM     31  C   UNL     1      -8.277   0.651  -1.038  0.00  0.00    +0.130 A 
ENDBRANCH  23  28
ENDBRANCH  15   4
BRANCH  11   1
ATOM      1  O   UNL     1       1.504   1.429  -1.206  0.00  0.00    -0.391 OA
ATOM     33  H   UNL     1       1.622   1.923  -0.377  0.00  0.00    +0.210 HD
ENDBRANCH  11   1
BRANCH  13  19
ATOM     19  C   UNL     1       3.999  -0.122  -1.289  0.00  0.00    +0.078 C 
ATOM     21  C   UNL     1       3.824  -1.052  -2.475  0.00  0.00    +0.017 C 
BRANCH  19  22
ATOM      2  O   UNL     1       5.790  -1.539  -0.613  0.00  0.00    -0.275 OA
ATOM      5  N   UNL     1       5.896   0.676   0.033  0.00  0.00    -0.301 N 
ATOM     22  C   UNL     1       5.309  -0.405  -0.598  0.00  0.00    +0.219 C 
ATOM     24  C   UNL     1       7.159   0.567   0.750  0.00  0.00    +0.108 C 
ATOM     25  C   UNL     1       5.382   2.042   0.084  0.00  0.00    +0.108 C 
ATOM     26  C   UNL     1       7.585   2.006   0.991  0.00  0.00    +0.020 C 
ATOM     27  C   UNL     1       6.255   2.737   1.119  0.00  0.00    +0.020 C 
ENDBRANCH  19  22
ENDBRANCH  13  19
TORSDOF 5
