REMARK  Name = 75536614
REMARK  6 active torsions:
REMARK  status: ('A' for Active; 'I' for Inactive)
REMARK    1  A    between atoms: O_2  and  C_8
REMARK    2  A    between atoms: N_5  and  C_7
REMARK    3  A    between atoms: N_5  and  C_10
REMARK    4  A    between atoms: N_6  and  C_14
REMARK    5  A    between atoms: C_9  and  C_14
REMARK    6  A    between atoms: C_17  and  C_18
REMARK                            x       y       z     vdW  Elec       q    Type
REMARK                         _______ _______ _______ _____ _____    ______ ____
ROOT
ATOM      1  O   UNL     1      -0.092   0.555  -0.885  0.00  0.00    -0.371 OA
ATOM      7  C   UNL     1      -2.188  -0.316  -0.183  0.00  0.00    +0.111 C 
ATOM      8  C   UNL     1      -1.199  -1.459  -0.325  0.00  0.00    +0.164 C 
ATOM      9  C   UNL     1       0.126  -0.712  -0.243  0.00  0.00    +0.165 C 
ATOM     11  C   UNL     1      -1.510   0.771  -1.001  0.00  0.00    +0.181 C 
ENDROOT
BRANCH   8   2
ATOM      2  O   UNL     1      -1.327  -2.421   0.704  0.00  0.00    -0.388 OA
ATOM     25  H   UNL     1      -1.228  -1.970   1.559  0.00  0.00    +0.210 HD
ENDBRANCH   8   2
BRANCH   7   5
ATOM      5  N   UNL     1      -3.522  -0.636  -0.663  0.00  0.00    -0.306 NA
ATOM     24  H   UNL     1      -3.795  -1.566  -0.345  0.00  0.00    +0.123 HD
BRANCH   5  10
ATOM      3  O   UNL     1      -7.128   0.926   0.814  0.00  0.00    -0.380 OA
ATOM     10  C   UNL     1      -4.497   0.350  -0.203  0.00  0.00    +0.058 C 
ATOM     12  C   UNL     1      -4.886   0.100   1.258  0.00  0.00    +0.047 C 
ATOM     13  C   UNL     1      -5.745   0.319  -1.090  0.00  0.00    +0.047 C 
ATOM     15  C   UNL     1      -6.000   1.052   1.680  0.00  0.00    +0.161 C 
ATOM     16  C   UNL     1      -6.811   1.259  -0.538  0.00  0.00    +0.161 C 
ENDBRANCH   5  10
ENDBRANCH   7   5
BRANCH   9  14
ATOM     14  C   UNL     1       1.269  -1.443  -0.924  0.00  0.00    +0.138 C 
BRANCH  14   6
ATOM      4  O   UNL     1       3.223  -1.632   1.171  0.00  0.00    -0.270 OA
ATOM      6  N   UNL     1       2.494  -0.702  -0.825  0.00  0.00    -0.309 N 
ATOM     17  C   UNL     1       3.386  -0.859   0.231  0.00  0.00    +0.244 C 
ATOM     26  H   UNL     1       2.655   0.005  -1.534  0.00  0.00    +0.149 HD
BRANCH  17  18
ATOM     18  C   UNL     1       4.597   0.002   0.200  0.00  0.00    +0.037 A 
ATOM     19  C   UNL     1       5.237   0.349   1.390  0.00  0.00    +0.013 A 
ATOM     20  C   UNL     1       5.095   0.461  -1.019  0.00  0.00    +0.013 A 
ATOM     21  C   UNL     1       6.374   1.155   1.360  0.00  0.00    +0.001 A 
ATOM     22  C   UNL     1       6.232   1.268  -1.049  0.00  0.00    +0.001 A 
ATOM     23  C   UNL     1       6.872   1.615   0.141  0.00  0.00    +0.000 A 
ENDBRANCH  17  18
ENDBRANCH  14   6
ENDBRANCH   9  14
TORSDOF 6
