REMARK  Name = 75536810
REMARK  6 active torsions:
REMARK  status: ('A' for Active; 'I' for Inactive)
REMARK    1  A    between atoms: O_3  and  C_8
REMARK    2  A    between atoms: N_5  and  C_7
REMARK    3  A    between atoms: N_5  and  C_14
REMARK    4  A    between atoms: N_6  and  C_15
REMARK    5  A    between atoms: C_9  and  C_15
REMARK    6  A    between atoms: C_10  and  C_16
REMARK                            x       y       z     vdW  Elec       q    Type
REMARK                         _______ _______ _______ _____ _____    ______ ____
ROOT
ATOM      1  O   UNL     1       0.677  -0.979   1.411  0.00  0.00    -0.371 OA
ATOM      7  C   UNL     1      -1.394  -0.548   0.332  0.00  0.00    +0.111 C 
ATOM      8  C   UNL     1      -0.433  -1.165  -0.668  0.00  0.00    +0.164 C 
ATOM      9  C   UNL     1       0.568  -1.835   0.262  0.00  0.00    +0.165 C 
ATOM     13  C   UNL     1      -0.438  -0.070   1.412  0.00  0.00    +0.181 C 
ENDROOT
BRANCH   8   3
ATOM      3  O   UNL     1      -1.062  -2.098  -1.526  0.00  0.00    -0.388 OA
ATOM     21  H   UNL     1      -1.488  -2.778  -0.978  0.00  0.00    +0.210 HD
ENDBRANCH   8   3
BRANCH   7   5
ATOM      5  N   UNL     1      -2.204   0.524  -0.223  0.00  0.00    -0.302 NA
ATOM     19  H   UNL     1      -1.631   1.355  -0.368  0.00  0.00    +0.123 HD
BRANCH   5  14
ATOM      2  O   UNL     1      -5.135   0.851  -0.577  0.00  0.00    -0.377 OA
ATOM     14  C   UNL     1      -3.378   0.744   0.631  0.00  0.00    +0.106 C 
ATOM     17  C   UNL     1      -4.247   1.838   0.008  0.00  0.00    +0.180 C 
ATOM     18  C   UNL     1      -4.499  -0.200   0.196  0.00  0.00    +0.180 C 
ENDBRANCH   5  14
ENDBRANCH   7   5
BRANCH   9  15
ATOM     15  C   UNL     1       1.937  -2.027  -0.366  0.00  0.00    +0.138 C 
BRANCH  15   6
ATOM      4  O   UNL     1       3.630  -0.285   1.231  0.00  0.00    -0.276 OA
ATOM      6  N   UNL     1       2.514  -0.772  -0.755  0.00  0.00    -0.313 N 
ATOM     16  C   UNL     1       3.314  -0.006   0.081  0.00  0.00    +0.216 C 
ATOM     20  H   UNL     1       2.333  -0.442  -1.698  0.00  0.00    +0.149 HD
BRANCH  16  10
ATOM     10  C   UNL     1       3.807   1.263  -0.532  0.00  0.00    +0.075 C 
ATOM     11  C   UNL     1       2.808   2.219  -1.093  0.00  0.00    +0.013 C 
ATOM     12  C   UNL     1       3.535   2.548   0.176  0.00  0.00    +0.013 C 
ENDBRANCH  16  10
ENDBRANCH  15   6
ENDBRANCH   9  15
TORSDOF 6
