REMARK  Name = 56774050
REMARK  11 active torsions:
REMARK  status: ('A' for Active; 'I' for Inactive)
REMARK    1  A    between atoms: S_1  and  N_5
REMARK    2  A    between atoms: S_1  and  C_16
REMARK    3  A    between atoms: N_5  and  C_9
REMARK    4  A    between atoms: C_7  and  C_12
REMARK    5  A    between atoms: C_7  and  C_13
REMARK    6  A    between atoms: C_8  and  C_11
REMARK    7  A    between atoms: C_11  and  C_14
REMARK    8  A    between atoms: C_17  and  C_18
REMARK    9  A    between atoms: C_18  and  C_19
REMARK   10  A    between atoms: C_18  and  C_20
REMARK   11  A    between atoms: C_18  and  C_21
REMARK                            x       y       z     vdW  Elec       q    Type
REMARK                         _______ _______ _______ _____ _____    ______ ____
ROOT
ATOM      7  C   UNL     1      -2.176   1.870  -0.057  0.00  0.00    -0.015 C 
ATOM      8  C   UNL     1      -0.741   1.482   0.355  0.00  0.00    +0.004 C 
ATOM      9  C   UNL     1      -2.618   0.486   0.462  0.00  0.00    +0.082 C 
ATOM     10  C   UNL     1      -1.175   0.010   0.193  0.00  0.00    +0.025 C 
ATOM     12  C   UNL     1      -2.720   3.061   0.701  0.00  0.00    +0.013 C 
ATOM     13  C   UNL     1      -2.412   2.048  -1.546  0.00  0.00    +0.013 C 
ENDROOT
BRANCH   9   5
ATOM      5  N   UNL     1      -3.694  -0.234  -0.304  0.00  0.00    -0.191 NA
ATOM     22  H   UNL     1      -4.485   0.380  -0.544  0.00  0.00    +0.148 HD
BRANCH   5   1
ATOM      1  S   UNL     1      -4.128  -1.871  -0.067  0.00  0.00    +0.027 S 
ATOM      3  O   UNL     1      -2.949  -2.707  -0.175  0.00  0.00    -0.158 OA
ATOM      4  O   UNL     1      -5.318  -2.150  -0.846  0.00  0.00    -0.158 OA
ATOM     16  C   UNL     1      -4.606  -1.818   1.644  0.00  0.00    +0.214 C 
ENDBRANCH   5   1
ENDBRANCH   9   5
BRANCH   8  11
ATOM     11  C   UNL     1       0.401   1.923  -0.570  0.00  0.00    +0.063 C 
BRANCH  11  14
ATOM      2  O   UNL     1       3.558   0.937   0.778  0.00  0.00    -0.359 OA
ATOM      6  N   UNL     1       2.486   1.816   0.675  0.00  0.00    -0.083 NA
ATOM     14  C   UNL     1       1.662   1.253  -0.213  0.00  0.00    +0.084 A 
ATOM     15  C   UNL     1       2.156   0.030  -0.699  0.00  0.00    +0.071 A 
ATOM     17  C   UNL     1       3.349  -0.123  -0.044  0.00  0.00    +0.143 A 
BRANCH  17  18
ATOM     18  C   UNL     1       4.442  -1.205  -0.060  0.00  0.00    +0.023 C 
ATOM     19  C   UNL     1       5.017  -1.342  -1.486  0.00  0.00    +0.019 C 
ATOM     20  C   UNL     1       3.839  -2.558   0.376  0.00  0.00    +0.019 C 
ATOM     21  C   UNL     1       5.629  -0.909   0.884  0.00  0.00    +0.019 C 
ENDBRANCH  17  18
ENDBRANCH  11  14
ENDBRANCH   8  11
TORSDOF 5
