REMARK  Name = 25312971
REMARK  8 active torsions:
REMARK  status: ('A' for Active; 'I' for Inactive)
REMARK    1  A    between atoms: O_6  and  C_21
REMARK    2  A    between atoms: N_9  and  C_17
REMARK    3  A    between atoms: C_10  and  C_14
REMARK    4  A    between atoms: C_11  and  C_16
REMARK    5  A    between atoms: C_14  and  C_17
REMARK    6  A    between atoms: C_16  and  C_21
REMARK    7  A    between atoms: C_18  and  C_24
REMARK    8  A    between atoms: C_29  and  C_30
REMARK                            x       y       z     vdW  Elec       q    Type
REMARK                         _______ _______ _______ _____ _____    ______ ____
ROOT
ATOM      5  O   UNL     1      -0.089   3.176  -2.131  0.00  0.00    -0.270 OA
ATOM      8  N   UNL     1      -1.178   2.277  -0.265  0.00  0.00    -0.297 N 
ATOM     10  C   UNL     1      -2.109   0.314   0.941  0.00  0.00    +0.011 C 
ATOM     11  C   UNL     1      -3.528   0.784   0.529  0.00  0.00    +0.006 C 
ATOM     12  C   UNL     1      -1.153   1.520   0.994  0.00  0.00    +0.112 C 
ATOM     13  C   UNL     1      -3.496   1.611  -0.767  0.00  0.00    +0.023 C 
ATOM     15  C   UNL     1      -2.498   2.761  -0.664  0.00  0.00    +0.108 C 
ATOM     18  C   UNL     1      -0.071   2.548  -1.073  0.00  0.00    +0.247 C 
ENDROOT
BRANCH  18  24
ATOM     24  C   UNL     1       1.238   2.046  -0.641  0.00  0.00    +0.037 A 
ATOM     25  C   UNL     1       1.668   0.781  -1.043  0.00  0.00    +0.013 A 
ATOM     26  C   UNL     1       2.052   2.833   0.172  0.00  0.00    +0.013 A 
ATOM     27  C   UNL     1       2.912   0.303  -0.630  0.00  0.00    +0.013 A 
ATOM     28  C   UNL     1       3.296   2.356   0.585  0.00  0.00    +0.013 A 
ATOM     29  C   UNL     1       3.726   1.091   0.183  0.00  0.00    +0.055 A 
BRANCH  29  30
ATOM      1  F   UNL     1       6.103   1.359   0.219  0.00  0.00    -0.166 F 
ATOM      2  F   UNL     1       5.324  -0.669   0.145  0.00  0.00    -0.166 F 
ATOM      3  F   UNL     1       5.185   0.488   1.980  0.00  0.00    -0.166 F 
ATOM     30  C   UNL     1       5.056   0.580   0.624  0.00  0.00    +0.417 C 
ENDBRANCH  29  30
ENDBRANCH  18  24
BRANCH  10  14
ATOM     14  C   UNL     1      -1.532  -0.785   0.040  0.00  0.00    +0.020 C 
BRANCH  14  17
ATOM     17  C   UNL     1      -0.509  -1.623   0.794  0.00  0.00    +0.085 C 
BRANCH  17   9
ATOM      4  O   UNL     1       1.013  -5.274  -0.609  0.00  0.00    -0.377 OA
ATOM      9  N   UNL     1       0.039  -2.650  -0.089  0.00  0.00    -0.298 NA
ATOM     19  C   UNL     1      -0.868  -3.804  -0.173  0.00  0.00    +0.112 C 
ATOM     20  C   UNL     1       1.364  -3.084   0.375  0.00  0.00    +0.112 C 
ATOM     22  C   UNL     1      -0.269  -4.868  -1.089  0.00  0.00    +0.175 C 
ATOM     23  C   UNL     1       1.910  -4.164  -0.555  0.00  0.00    +0.175 C 
ENDBRANCH  17   9
ENDBRANCH  14  17
ENDBRANCH  10  14
BRANCH  11  16
ATOM     16  C   UNL     1      -4.530  -0.364   0.411  0.00  0.00    +0.124 C 
BRANCH  16  21
ATOM      7  O   UNL     1      -6.307   1.271   0.738  0.00  0.00    -0.251 OA
ATOM     21  C   UNL     1      -5.947   0.118   0.554  0.00  0.00    +0.305 C 
BRANCH  21   6
ATOM      6  O   UNL     1      -6.801  -0.931   0.448  0.00  0.00    -0.481 OA
ATOM     31  H   UNL     1      -7.737  -0.652   0.537  0.00  0.00    +0.295 HD
ENDBRANCH  21   6
ENDBRANCH  16  21
ENDBRANCH  11  16
TORSDOF 8
