REMARK  Name = 26745475
REMARK  8 active torsions:
REMARK  status: ('A' for Active; 'I' for Inactive)
REMARK    1  A    between atoms: S_2  and  N_10
REMARK    2  A    between atoms: S_2  and  C_21
REMARK    3  A    between atoms: O_8  and  C_18
REMARK    4  A    between atoms: O_8  and  C_30
REMARK    5  A    between atoms: N_11  and  C_19
REMARK    6  A    between atoms: C_13  and  C_18
REMARK    7  A    between atoms: C_19  and  C_22
REMARK    8  A    between atoms: C_25  and  C_31
REMARK                            x       y       z     vdW  Elec       q    Type
REMARK                         _______ _______ _______ _____ _____    ______ ____
ROOT
ATOM     10  N   UNL     1       2.047  -0.565  -0.563  0.00  0.00    -0.157 NA
ATOM     11  N   UNL     1       0.610   2.661   0.667  0.00  0.00    -0.328 N 
ATOM     12  N   UNL     1       2.188   3.591  -0.611  0.00  0.00    -0.240 NA
ATOM     13  C   UNL     1       3.417   0.004  -0.835  0.00  0.00    +0.194 C 
ATOM     14  C   UNL     1       1.192   0.191   0.424  0.00  0.00    +0.165 C 
ATOM     15  C   UNL     1       3.342   1.459  -1.347  0.00  0.00    +0.089 C 
ATOM     16  C   UNL     1       1.356   1.635   0.171  0.00  0.00    +0.057 A 
ATOM     17  C   UNL     1       2.319   2.230  -0.606  0.00  0.00    +0.066 A 
ATOM     20  C   UNL     1       1.150   3.819   0.167  0.00  0.00    +0.200 A 
ENDROOT
BRANCH  10   2
ATOM      2  S   UNL     1       1.931  -2.272  -0.475  0.00  0.00    +0.062 S 
ATOM      6  O   UNL     1       2.175  -2.692   0.888  0.00  0.00    -0.153 OA
ATOM      7  O   UNL     1       2.670  -2.850  -1.578  0.00  0.00    -0.153 OA
BRANCH   2  21
ATOM     21  C   UNL     1       0.210  -2.481  -0.806  0.00  0.00    +0.106 A 
ATOM     23  C   UNL     1      -0.650  -2.901   0.209  0.00  0.00    +0.041 A 
ATOM     24  C   UNL     1      -0.290  -2.226  -2.083  0.00  0.00    +0.028 A 
ATOM     25  C   UNL     1      -2.010  -3.066  -0.053  0.00  0.00    +0.057 A 
ATOM     26  C   UNL     1      -1.651  -2.391  -2.345  0.00  0.00    +0.002 A 
ATOM     29  C   UNL     1      -2.510  -2.811  -1.329  0.00  0.00    +0.012 A 
BRANCH  25  31
ATOM      3  F   UNL     1      -4.223  -3.625   0.612  0.00  0.00    -0.166 F 
ATOM      4  F   UNL     1      -2.607  -4.735   1.553  0.00  0.00    -0.166 F 
ATOM      5  F   UNL     1      -2.964  -2.668   2.104  0.00  0.00    -0.166 F 
ATOM     31  C   UNL     1      -2.929  -3.514   1.032  0.00  0.00    +0.417 C 
ENDBRANCH  25  31
ENDBRANCH   2  21
ENDBRANCH  10   2
BRANCH  13  18
ATOM      9  O   UNL     1       3.829  -0.557   1.466  0.00  0.00    -0.249 OA
ATOM     18  C   UNL     1       4.244  -0.113   0.405  0.00  0.00    +0.326 C 
BRANCH  18   8
ATOM      8  O   UNL     1       5.504   0.345   0.157  0.00  0.00    -0.467 OA
ATOM     30  C   UNL     1       6.408   0.290   1.265  0.00  0.00    +0.280 C 
ENDBRANCH  18   8
ENDBRANCH  13  18
BRANCH  11  19
ATOM     19  C   UNL     1      -0.524   2.567   1.554  0.00  0.00    +0.158 C 
BRANCH  19  22
ATOM      1 CL   UNL     1      -5.804   3.263  -1.252  0.00  0.00    -0.084 Cl
ATOM     22  C   UNL     1      -1.848   2.741   0.851  0.00  0.00    -0.028 A 
ATOM     27  C   UNL     1      -2.287   4.017   0.497  0.00  0.00    +0.007 A 
ATOM     28  C   UNL     1      -2.633   1.626   0.555  0.00  0.00    +0.007 A 
ATOM     32  C   UNL     1      -3.511   4.178  -0.152  0.00  0.00    +0.020 A 
ATOM     33  C   UNL     1      -3.857   1.788  -0.094  0.00  0.00    +0.020 A 
ATOM     34  C   UNL     1      -4.296   3.064  -0.448  0.00  0.00    +0.041 A 
ENDBRANCH  19  22
ENDBRANCH  11  19
TORSDOF 7
