REMARK  Name = 28960141
REMARK  9 active torsions:
REMARK  status: ('A' for Active; 'I' for Inactive)
REMARK    1  A    between atoms: O_3  and  C_17
REMARK    2  A    between atoms: N_6  and  C_15
REMARK    3  A    between atoms: N_6  and  C_19
REMARK    4  A    between atoms: N_6  and  C_20
REMARK    5  A    between atoms: C_8  and  C_12
REMARK    6  A    between atoms: C_9  and  C_14
REMARK    7  A    between atoms: C_12  and  C_15
REMARK    8  A    between atoms: C_14  and  C_17
REMARK    9  A    between atoms: C_16  and  C_18
REMARK                            x       y       z     vdW  Elec       q    Type
REMARK                         _______ _______ _______ _____ _____    ______ ____
ROOT
ATOM      2  O   UNL     1       3.604  -2.489   1.136  0.00  0.00    -0.270 OA
ATOM      5  N   UNL     1       1.776  -1.970  -0.229  0.00  0.00    -0.297 N 
ATOM      8  C   UNL     1      -0.346  -0.731  -0.599  0.00  0.00    +0.012 C 
ATOM      9  C   UNL     1      -1.117  -2.049  -0.329  0.00  0.00    +0.006 C 
ATOM     10  C   UNL     1      -0.313  -2.999   0.575  0.00  0.00    +0.023 C 
ATOM     11  C   UNL     1       1.066  -1.047  -1.126  0.00  0.00    +0.112 C 
ATOM     13  C   UNL     1       1.089  -3.235   0.021  0.00  0.00    +0.108 C 
ATOM     16  C   UNL     1       3.009  -1.723   0.380  0.00  0.00    +0.247 C 
ENDROOT
BRANCH  16  18
ATOM      1 CL   UNL     1       3.821   3.257   1.565  0.00  0.00    -0.062 Cl
ATOM      7  N   UNL     1       4.927   2.000  -0.414  0.00  0.00    -0.244 NA
ATOM     18  C   UNL     1       3.669  -0.441   0.107  0.00  0.00    +0.041 A 
ATOM     21  C   UNL     1       3.420   0.660   0.919  0.00  0.00    +0.053 A 
ATOM     22  C   UNL     1       4.546  -0.323  -0.965  0.00  0.00    +0.033 A 
ATOM     25  C   UNL     1       4.068   1.847   0.619  0.00  0.00    +0.130 A 
ATOM     26  C   UNL     1       5.144   0.908  -1.181  0.00  0.00    +0.113 A 
ENDBRANCH  16  18
BRANCH   8  12
ATOM     12  C   UNL     1      -0.264   0.203   0.615  0.00  0.00    +0.024 C 
BRANCH  12  15
ATOM     15  C   UNL     1      -0.042   1.654   0.217  0.00  0.00    +0.105 C 
BRANCH  15   6
ATOM      6  N   UNL     1      -1.094   2.115  -0.656  0.00  0.00    -0.333 N 
ATOM     20  C   UNL     1      -0.745   2.530  -2.015  0.00  0.00    +0.129 C 
BRANCH   6  19
ATOM     19  C   UNL     1      -2.427   2.177  -0.225  0.00  0.00    +0.029 A 
ATOM     23  C   UNL     1      -3.461   2.223  -1.161  0.00  0.00    +0.023 A 
ATOM     24  C   UNL     1      -2.720   2.193   1.138  0.00  0.00    +0.023 A 
ATOM     27  C   UNL     1      -4.787   2.285  -0.733  0.00  0.00    +0.002 A 
ATOM     28  C   UNL     1      -4.046   2.256   1.567  0.00  0.00    +0.002 A 
ATOM     29  C   UNL     1      -5.079   2.301   0.631  0.00  0.00    +0.000 A 
ENDBRANCH   6  19
ENDBRANCH  15   6
ENDBRANCH  12  15
ENDBRANCH   8  12
BRANCH   9  14
ATOM     14  C   UNL     1      -2.517  -1.820   0.239  0.00  0.00    +0.124 C 
BRANCH  14  17
ATOM      4  O   UNL     1      -3.117  -4.033  -0.588  0.00  0.00    -0.251 OA
ATOM     17  C   UNL     1      -3.417  -2.998  -0.012  0.00  0.00    +0.305 C 
BRANCH  17   3
ATOM      3  O   UNL     1      -4.649  -2.751   0.503  0.00  0.00    -0.481 OA
ATOM     30  H   UNL     1      -5.264  -3.501   0.356  0.00  0.00    +0.295 HD
ENDBRANCH  17   3
ENDBRANCH  14  17
ENDBRANCH   9  14
TORSDOF 8
