REMARK  Name = 26743700
REMARK  7 active torsions:
REMARK  status: ('A' for Active; 'I' for Inactive)
REMARK    1  A    between atoms: O_4  and  C_16
REMARK    2  A    between atoms: O_7  and  C_30
REMARK    3  A    between atoms: O_7  and  C_31
REMARK    4  A    between atoms: N_8  and  C_12
REMARK    5  A    between atoms: C_13  and  C_21
REMARK    6  A    between atoms: C_22  and  C_24
REMARK    7  A    between atoms: C_23  and  C_25
REMARK                            x       y       z     vdW  Elec       q    Type
REMARK                         _______ _______ _______ _____ _____    ______ ____
ROOT
ATOM      8  N   UNL     1      -3.075  -1.258  -0.593  0.00  0.00    -0.286 NA
ATOM     13  C   UNL     1      -2.560  -2.160   0.458  0.00  0.00    +0.149 C 
ATOM     14  C   UNL     1      -4.010  -2.046  -1.393  0.00  0.00    +0.116 C 
ATOM     15  C   UNL     1      -2.650  -3.570  -0.155  0.00  0.00    +0.061 C 
ATOM     16  C   UNL     1      -3.270  -3.363  -1.532  0.00  0.00    +0.130 C 
ENDROOT
BRANCH   8  12
ATOM      6  O   UNL     1      -3.882   4.822  -1.027  0.00  0.00    -0.276 OA
ATOM      9  N   UNL     1      -3.778   2.838   0.177  0.00  0.00    -0.302 N 
ATOM     12  C   UNL     1      -3.693  -0.046  -0.059  0.00  0.00    +0.060 C 
ATOM     17  C   UNL     1      -2.687   0.718   0.812  0.00  0.00    +0.038 C 
ATOM     18  C   UNL     1      -4.191   0.840  -1.208  0.00  0.00    +0.038 C 
ATOM     19  C   UNL     1      -3.281   2.038   1.304  0.00  0.00    +0.109 C 
ATOM     20  C   UNL     1      -4.754   2.157  -0.675  0.00  0.00    +0.109 C 
ATOM     22  C   UNL     1      -3.422   4.159  -0.094  0.00  0.00    +0.212 C 
ATOM     24  C   UNL     1      -2.409   4.788   0.828  0.00  0.00    +0.109 C 
ENDBRANCH   8  12
BRANCH  13  21
ATOM      5  O   UNL     1      -0.813  -2.141   2.167  0.00  0.00    -0.336 OA
ATOM     10  N   UNL     1      -0.204  -1.202   0.227  0.00  0.00    -0.190 NA
ATOM     11  N   UNL     1       0.510  -1.714   2.340  0.00  0.00    -0.056 NA
ATOM     21  C   UNL     1      -1.156  -1.801   0.897  0.00  0.00    +0.245 A 
ATOM     23  C   UNL     1       0.798  -1.170   1.153  0.00  0.00    +0.202 A 
BRANCH  23  25
ATOM     25  C   UNL     1       2.076  -0.590   0.860  0.00  0.00    +0.023 A 
ATOM     26  C   UNL     1       2.321  -0.038  -0.397  0.00  0.00    +0.015 A 
ATOM     27  C   UNL     1       3.076  -0.578   1.833  0.00  0.00    +0.015 A 
ATOM     28  C   UNL     1       3.565   0.524  -0.682  0.00  0.00    +0.046 A 
ATOM     29  C   UNL     1       4.320  -0.015   1.549  0.00  0.00    +0.046 A 
ATOM     30  C   UNL     1       4.564   0.536   0.291  0.00  0.00    +0.130 A 
BRANCH  30   7
ATOM      7  O   UNL     1       5.779   1.085   0.014  0.00  0.00    -0.406 OA
BRANCH   7  31
ATOM      1  F   UNL     1       7.854   0.671  -0.769  0.00  0.00    -0.133 F 
ATOM      2  F   UNL     1       6.281  -0.781  -1.208  0.00  0.00    -0.133 F 
ATOM      3  F   UNL     1       6.296   1.187  -2.211  0.00  0.00    -0.133 F 
ATOM     31  C   UNL     1       6.540   0.535  -1.055  0.00  0.00    +0.575 C 
ENDBRANCH   7  31
ENDBRANCH  30   7
ENDBRANCH  23  25
ENDBRANCH  13  21
BRANCH  16   4
ATOM      4  O   UNL     1      -4.146  -4.426  -1.853  0.00  0.00    -0.390 OA
ATOM     32  H   UNL     1      -3.623  -5.246  -1.850  0.00  0.00    +0.210 HD
ENDBRANCH  16   4
TORSDOF 6
