REMARK  Name = 51137031
REMARK  5 active torsions:
REMARK  status: ('A' for Active; 'I' for Inactive)
REMARK    1  A    between atoms: S_1  and  C_19
REMARK    2  A    between atoms: S_1  and  C_22
REMARK    3  A    between atoms: C_9  and  C_13
REMARK    4  A    between atoms: C_14  and  C_17
REMARK    5  A    between atoms: C_22  and  C_25
REMARK                            x       y       z     vdW  Elec       q    Type
REMARK                         _______ _______ _______ _____ _____    ______ ____
ROOT
ATOM      2  O   UNL     1      -0.965   2.499  -0.920  0.00  0.00    -0.439 OA
ATOM      7  N   UNL     1      -0.326   0.509  -0.043  0.00  0.00    -0.213 NA
ATOM     13  C   UNL     1       0.037   1.708  -0.444  0.00  0.00    +0.201 A 
ATOM     15  C   UNL     1      -1.681   0.497  -0.270  0.00  0.00    +0.111 A 
ATOM     16  C   UNL     1      -2.076   1.714  -0.807  0.00  0.00    +0.155 A 
ATOM     18  C   UNL     1      -2.649  -0.494  -0.053  0.00  0.00    +0.058 A 
ATOM     19  C   UNL     1      -3.978  -0.202  -0.393  0.00  0.00    +0.090 A 
ATOM     20  C   UNL     1      -3.381   2.039  -1.155  0.00  0.00    +0.050 A 
ATOM     21  C   UNL     1      -4.334   1.040  -0.933  0.00  0.00    +0.030 A 
ENDROOT
BRANCH  13   9
ATOM      3  O   UNL     1       3.939  -0.227   2.534  0.00  0.00    -0.270 OA
ATOM      6  N   UNL     1       2.958   1.064   0.871  0.00  0.00    -0.297 N 
ATOM      9  C   UNL     1       1.426   2.323  -0.444  0.00  0.00    +0.094 C 
ATOM     10  C   UNL     1       1.715   3.070   0.868  0.00  0.00    +0.033 C 
ATOM     11  C   UNL     1       2.609   1.348  -0.522  0.00  0.00    +0.121 C 
ATOM     12  C   UNL     1       2.306   1.999   1.775  0.00  0.00    +0.109 C 
ATOM     14  C   UNL     1       3.731   0.016   1.347  0.00  0.00    +0.247 C 
BRANCH  14  17
ATOM      8  N   UNL     1       5.485  -2.600  -1.531  0.00  0.00    -0.263 NA
ATOM     17  C   UNL     1       4.337  -0.886   0.356  0.00  0.00    +0.040 A 
ATOM     23  C   UNL     1       5.222  -0.387  -0.593  0.00  0.00    +0.033 A 
ATOM     24  C   UNL     1       4.026  -2.241   0.363  0.00  0.00    +0.033 A 
ATOM     26  C   UNL     1       5.764  -1.277  -1.506  0.00  0.00    +0.111 A 
ATOM     27  C   UNL     1       4.621  -3.049  -0.593  0.00  0.00    +0.111 A 
ENDBRANCH  14  17
ENDBRANCH  13   9
BRANCH  19   1
ATOM      1  S   UNL     1      -5.213  -1.414  -0.138  0.00  0.00    -0.003 S 
ATOM      4  O   UNL     1      -6.325  -1.147  -1.038  0.00  0.00    -0.169 OA
ATOM      5  O   UNL     1      -4.566  -2.717  -0.151  0.00  0.00    -0.169 OA
BRANCH   1  22
ATOM     22  C   UNL     1      -5.796  -1.107   1.513  0.00  0.00    +0.168 C 
ATOM     25  C   UNL     1      -6.886  -2.079   1.907  0.00  0.00    +0.028 C 
ENDBRANCH   1  22
ENDBRANCH  19   1
TORSDOF 4
