REMARK  Name = 25390318
REMARK  9 active torsions:
REMARK  status: ('A' for Active; 'I' for Inactive)
REMARK    1  A    between atoms: O_3  and  C_9
REMARK    2  A    between atoms: O_4  and  C_10
REMARK    3  A    between atoms: N_7  and  C_13
REMARK    4  A    between atoms: N_8  and  C_18
REMARK    5  A    between atoms: C_11  and  C_13
REMARK    6  A    between atoms: C_12  and  C_14
REMARK    7  A    between atoms: C_14  and  C_15
REMARK    8  A    between atoms: C_16  and  C_17
REMARK    9  A    between atoms: C_18  and  C_23
REMARK                            x       y       z     vdW  Elec       q    Type
REMARK                         _______ _______ _______ _____ _____    ______ ____
ROOT
ATOM      2  O   UNL     1      -1.843  -0.645   0.552  0.00  0.00    -0.366 OA
ATOM      9  C   UNL     1      -3.542  -2.181  -0.092  0.00  0.00    +0.176 C 
ATOM     10  C   UNL     1      -3.823  -0.829  -0.715  0.00  0.00    +0.175 C 
ATOM     11  C   UNL     1      -2.074  -2.050   0.301  0.00  0.00    +0.167 C 
ATOM     12  C   UNL     1      -3.022   0.094   0.187  0.00  0.00    +0.158 C 
ENDROOT
BRANCH   9   3
ATOM      3  O   UNL     1      -4.307  -2.345   1.102  0.00  0.00    -0.387 OA
ATOM     26  H   UNL     1      -4.067  -3.206   1.485  0.00  0.00    +0.210 HD
ENDBRANCH   9   3
BRANCH  10   4
ATOM      4  O   UNL     1      -5.194  -0.495  -0.732  0.00  0.00    -0.387 OA
ATOM     27  H   UNL     1      -5.658  -1.192  -1.228  0.00  0.00    +0.210 HD
ENDBRANCH  10   4
BRANCH  11  13
ATOM     13  C   UNL     1      -1.121  -2.489  -0.802  0.00  0.00    +0.138 C 
BRANCH  13   7
ATOM      6  O   UNL     1       0.538  -0.171  -1.145  0.00  0.00    -0.270 OA
ATOM      7  N   UNL     1       0.245  -2.346  -0.393  0.00  0.00    -0.309 N 
ATOM     16  C   UNL     1       0.978  -1.180  -0.600  0.00  0.00    +0.244 C 
ATOM     28  H   UNL     1       0.685  -3.164   0.014  0.00  0.00    +0.149 HD
BRANCH  16  17
ATOM      1  F   UNL     1       5.572   0.381  -0.923  0.00  0.00    -0.205 F 
ATOM     17  C   UNL     1       2.390  -1.201  -0.141  0.00  0.00    +0.039 A 
ATOM     19  C   UNL     1       3.337  -0.384  -0.760  0.00  0.00    +0.051 A 
ATOM     20  C   UNL     1       2.770  -2.037   0.909  0.00  0.00    +0.013 A 
ATOM     21  C   UNL     1       4.663  -0.404  -0.329  0.00  0.00    +0.124 A 
ATOM     22  C   UNL     1       4.097  -2.057   1.339  0.00  0.00    +0.004 A 
ATOM     24  C   UNL     1       5.043  -1.240   0.720  0.00  0.00    +0.038 A 
ENDBRANCH  16  17
ENDBRANCH  13   7
ENDBRANCH  11  13
BRANCH  12  14
ATOM     14  C   UNL     1      -2.621   1.395  -0.487  0.00  0.00    +0.130 C 
BRANCH  14  15
ATOM      5  O   UNL     1      -1.415   1.945   1.537  0.00  0.00    -0.276 OA
ATOM      8  N   UNL     1      -1.360   3.426  -0.253  0.00  0.00    -0.304 N 
ATOM     15  C   UNL     1      -1.739   2.260   0.395  0.00  0.00    +0.216 C 
ATOM     29  H   UNL     1      -1.670   3.586  -1.208  0.00  0.00    +0.150 HD
BRANCH   8  18
ATOM     18  C   UNL     1      -0.520   4.431   0.357  0.00  0.00    +0.193 C 
BRANCH  18  23
ATOM     23  C   UNL     1       0.894   4.167   0.093  0.00  0.00    -0.087 C 
ATOM     25  C   UNL     1       2.056   3.954  -0.122  0.00  0.00    +0.005 C 
ENDBRANCH  18  23
ENDBRANCH   8  18
ENDBRANCH  14  15
ENDBRANCH  12  14
TORSDOF 9
