REMARK  Name = 11913213
REMARK  8 active torsions:
REMARK  status: ('A' for Active; 'I' for Inactive)
REMARK    1  A    between atoms: S_1  and  N_7
REMARK    2  A    between atoms: S_1  and  C_18
REMARK    3  A    between atoms: O_6  and  C_29
REMARK    4  A    between atoms: O_6  and  C_34
REMARK    5  A    between atoms: N_7  and  C_13
REMARK    6  A    between atoms: N_8  and  C_14
REMARK    7  A    between atoms: C_18  and  C_19
REMARK    8  A    between atoms: C_20  and  C_25
REMARK                            x       y       z     vdW  Elec       q    Type
REMARK                         _______ _______ _______ _____ _____    ______ ____
ROOT
ATOM      2  O   UNL     1       0.135   0.150   1.769  0.00  0.00    -0.370 OA
ATOM      3  O   UNL     1      -0.842   2.993   0.917  0.00  0.00    -0.370 OA
ATOM     11  C   UNL     1      -0.913   1.698   0.297  0.00  0.00    +0.170 C 
ATOM     12  C   UNL     1       0.380   0.974   0.617  0.00  0.00    +0.171 C 
ATOM     13  C   UNL     1      -1.980   0.860   0.960  0.00  0.00    +0.133 C 
ATOM     14  C   UNL     1       1.349   2.080   0.962  0.00  0.00    +0.130 C 
ATOM     15  C   UNL     1      -1.246   0.259   2.143  0.00  0.00    +0.183 C 
ATOM     16  C   UNL     1       0.441   3.150   1.540  0.00  0.00    +0.185 C 
ENDROOT
BRANCH  14   8
ATOM      8  N   UNL     1       1.992   2.567  -0.239  0.00  0.00    -0.306 N 
ATOM      9  N   UNL     1       3.642   0.899  -0.163  0.00  0.00    -0.214 NA
ATOM     10  N   UNL     1       3.623   2.542  -1.927  0.00  0.00    -0.223 NA
ATOM     17  C   UNL     1       3.119   1.985  -0.793  0.00  0.00    +0.216 A 
ATOM     20  C   UNL     1       4.740   0.358  -0.730  0.00  0.00    +0.080 A 
ATOM     23  C   UNL     1       4.722   1.950  -2.439  0.00  0.00    +0.116 A 
ATOM     24  C   UNL     1       5.330   0.845  -1.879  0.00  0.00    +0.048 A 
ATOM     36  H   UNL     1       1.581   3.343  -0.746  0.00  0.00    +0.149 HD
BRANCH  20  25
ATOM     25  C   UNL     1       5.278  -0.794  -0.046  0.00  0.00    +0.042 A 
ATOM     29  C   UNL     1       4.852  -2.086  -0.366  0.00  0.00    +0.129 A 
ATOM     30  C   UNL     1       6.241  -0.611   0.950  0.00  0.00    +0.013 A 
ATOM     31  C   UNL     1       5.384  -3.187   0.306  0.00  0.00    +0.046 A 
ATOM     32  C   UNL     1       6.773  -1.711   1.622  0.00  0.00    +0.001 A 
ATOM     33  C   UNL     1       6.345  -2.999   1.300  0.00  0.00    +0.004 A 
BRANCH  29   6
ATOM      6  O   UNL     1       3.914  -2.299  -1.333  0.00  0.00    -0.494 OA
ATOM     34  C   UNL     1       2.550  -2.312  -0.919  0.00  0.00    +0.277 C 
ENDBRANCH  29   6
ENDBRANCH  20  25
ENDBRANCH  14   8
BRANCH  13   7
ATOM      7  N   UNL     1      -2.408  -0.221   0.038  0.00  0.00    -0.186 NA
ATOM     35  H   UNL     1      -1.948  -0.267  -0.879  0.00  0.00    +0.148 HD
BRANCH   7   1
ATOM      1  S   UNL     1      -3.959  -0.896   0.225  0.00  0.00    +0.034 S 
ATOM      4  O   UNL     1      -4.357  -0.845   1.619  0.00  0.00    -0.158 OA
ATOM      5  O   UNL     1      -4.004  -2.143  -0.514  0.00  0.00    -0.158 OA
BRANCH   1  18
ATOM     18  C   UNL     1      -4.943   0.286  -0.668  0.00  0.00    +0.220 C 
BRANCH  18  19
ATOM     19  C   UNL     1      -6.369  -0.165  -0.602  0.00  0.00    -0.025 A 
ATOM     21  C   UNL     1      -7.183   0.265   0.442  0.00  0.00    +0.005 A 
ATOM     22  C   UNL     1      -6.873  -1.010  -1.587  0.00  0.00    +0.005 A 
ATOM     26  C   UNL     1      -8.511  -0.155   0.503  0.00  0.00    +0.000 A 
ATOM     27  C   UNL     1      -8.202  -1.430  -1.526  0.00  0.00    +0.000 A 
ATOM     28  C   UNL     1      -9.021  -1.002  -0.480  0.00  0.00    +0.000 A 
ENDBRANCH  18  19
ENDBRANCH   1  18
ENDBRANCH   7   1
ENDBRANCH  13   7
TORSDOF 7
