REMARK  Name = 7663763
REMARK  3 active torsions:
REMARK  status: ('A' for Active; 'I' for Inactive)
REMARK    1  A    between atoms: N_6  and  C_20
REMARK    2  A    between atoms: C_17  and  C_19
REMARK    3  A    between atoms: C_21  and  C_24
REMARK                            x       y       z     vdW  Elec       q    Type
REMARK                         _______ _______ _______ _____ _____    ______ ____
ROOT
ATOM      2  O   UNL     1       0.223   2.211   1.851  0.00  0.00    -0.267 OA
ATOM      3  O   UNL     1      -3.708  -1.277   1.843  0.00  0.00    -0.252 OA
ATOM      4  N   UNL     1      -4.068   0.260   0.151  0.00  0.00    -0.284 N 
ATOM      5  N   UNL     1      -1.500   2.159   0.282  0.00  0.00    -0.311 N 
ATOM      6  N   UNL     1      -3.206  -1.881  -0.339  0.00  0.00    -0.269 N 
ATOM      7  C   UNL     1      -3.937   2.642   0.902  0.00  0.00    +0.027 C 
ATOM      8  C   UNL     1      -3.360   2.064  -1.415  0.00  0.00    +0.054 C 
ATOM      9  C   UNL     1      -4.071   3.097  -0.546  0.00  0.00    +0.018 C 
ATOM     10  C   UNL     1      -4.584   1.260   1.091  0.00  0.00    +0.114 C 
ATOM     11  C   UNL     1      -2.454   2.643   1.290  0.00  0.00    +0.130 C 
ATOM     12  C   UNL     1      -4.043   0.689  -1.259  0.00  0.00    +0.119 C 
ATOM     13  C   UNL     1      -1.893   1.952  -1.042  0.00  0.00    +0.027 A 
ATOM     14  C   UNL     1      -0.981   1.624  -1.970  0.00  0.00    +0.022 A 
ATOM     15  C   UNL     1      -0.160   2.018   0.695  0.00  0.00    +0.259 A 
ATOM     16  C   UNL     1      -3.653  -0.997   0.643  0.00  0.00    +0.306 C 
ATOM     17  C   UNL     1       0.835   1.622  -0.363  0.00  0.00    +0.040 A 
ATOM     18  C   UNL     1       0.400   1.457  -1.620  0.00  0.00    +0.015 A 
ATOM     33  H   UNL     1      -3.578  -1.786  -1.277  0.00  0.00    +0.156 HD
ENDROOT
BRANCH   6  20
ATOM     20  C   UNL     1      -2.304  -2.961  -0.171  0.00  0.00    +0.035 A 
ATOM     22  C   UNL     1      -2.034  -3.810  -1.241  0.00  0.00    +0.023 A 
ATOM     23  C   UNL     1      -1.692  -3.166   1.062  0.00  0.00    +0.023 A 
ATOM     25  C   UNL     1      -1.145  -4.872  -1.076  0.00  0.00    +0.002 A 
ATOM     26  C   UNL     1      -0.803  -4.228   1.227  0.00  0.00    +0.002 A 
ATOM     27  C   UNL     1      -0.530  -5.081   0.158  0.00  0.00    +0.000 A 
ENDBRANCH   6  20
BRANCH  17  19
ATOM     19  C   UNL     1       2.222   1.442  -0.015  0.00  0.00    +0.014 C 
ATOM     21  C   UNL     1       3.026   0.583  -0.653  0.00  0.00    +0.008 C 
BRANCH  21  24
ATOM      1 CL   UNL     1       8.773  -0.329   0.660  0.00  0.00    -0.084 Cl
ATOM     24  C   UNL     1       4.445   0.357  -0.328  0.00  0.00    -0.025 A 
ATOM     28  C   UNL     1       5.138   1.319   0.390  0.00  0.00    +0.009 A 
ATOM     29  C   UNL     1       5.060  -0.812  -0.747  0.00  0.00    +0.009 A 
ATOM     30  C   UNL     1       6.482   1.106   0.696  0.00  0.00    +0.020 A 
ATOM     31  C   UNL     1       6.404  -1.025  -0.440  0.00  0.00    +0.020 A 
ATOM     32  C   UNL     1       7.115  -0.066   0.281  0.00  0.00    +0.041 A 
ENDBRANCH  21  24
ENDBRANCH  17  19
TORSDOF 3
