REMARK  Name = 38027350
REMARK  13 active torsions:
REMARK  status: ('A' for Active; 'I' for Inactive)
REMARK    1  A    between atoms: O_3  and  C_28
REMARK    2  A    between atoms: N_5  and  C_16
REMARK    3  A    between atoms: N_6  and  C_15
REMARK    4  A    between atoms: C_7  and  C_11
REMARK    5  A    between atoms: C_8  and  C_15
REMARK    6  A    between atoms: C_10  and  C_14
REMARK    7  A    between atoms: C_11  and  C_17
REMARK    8  A    between atoms: C_11  and  C_18
REMARK    9  A    between atoms: C_12  and  C_22
REMARK   10  A    between atoms: C_14  and  C_21
REMARK   11  A    between atoms: C_25  and  C_26
REMARK   12  A    between atoms: C_26  and  C_27
REMARK   13  A    between atoms: C_27  and  C_28
REMARK                            x       y       z     vdW  Elec       q    Type
REMARK                         _______ _______ _______ _____ _____    ______ ____
ROOT
ATOM      7  C   UNL     1       1.433   1.918  -0.755  0.00  0.00    +0.000 C 
ATOM      8  C   UNL     1       2.595   2.143   0.245  0.00  0.00    +0.032 C 
ATOM      9  C   UNL     1       0.228   2.797  -0.384  0.00  0.00    +0.012 C 
ATOM     10  C   UNL     1      -0.288   2.508   1.038  0.00  0.00    +0.023 C 
ATOM     12  C   UNL     1       0.842   2.448   2.046  0.00  0.00    -0.073 C 
ATOM     13  C   UNL     1       2.125   2.298   1.672  0.00  0.00    -0.022 C 
ATOM     22  C   UNL     1       0.467   2.610   3.493  0.00  0.00    +0.039 C 
ENDROOT
BRANCH   7  11
ATOM     11  C   UNL     1       1.860   2.205  -2.198  0.00  0.00    -0.013 C 
ATOM     17  C   UNL     1       0.974   1.440  -3.177  0.00  0.00    +0.007 C 
ATOM     18  C   UNL     1       1.810   3.703  -2.479  0.00  0.00    +0.007 C 
ENDBRANCH   7  11
BRANCH  10  14
ATOM     14  C   UNL     1      -1.123   1.222   1.072  0.00  0.00    +0.103 C 
BRANCH  14  21
ATOM      1  O   UNL     1      -2.880   2.481  -0.015  0.00  0.00    -0.276 OA
ATOM      5  N   UNL     1      -3.218   0.235   0.478  0.00  0.00    -0.312 N 
ATOM     21  C   UNL     1      -2.487   1.414   0.449  0.00  0.00    +0.214 C 
ATOM     29  H   UNL     1      -2.776  -0.605   0.842  0.00  0.00    +0.149 HD
BRANCH   5  16
ATOM     16  C   UNL     1      -4.556   0.125  -0.046  0.00  0.00    +0.073 C 
ATOM     19  C   UNL     1      -5.349  -0.968   0.660  0.00  0.00    +0.022 C 
ATOM     20  C   UNL     1      -4.562  -0.339  -1.498  0.00  0.00    +0.022 C 
ATOM     23  C   UNL     1      -4.916  -2.260  -0.027  0.00  0.00    +0.002 C 
ATOM     24  C   UNL     1      -4.450  -1.861  -1.428  0.00  0.00    +0.002 C 
ENDBRANCH   5  16
ENDBRANCH  14  21
ENDBRANCH  10  14
BRANCH   8  15
ATOM     15  C   UNL     1       3.621   1.007   0.165  0.00  0.00    +0.112 C 
BRANCH  15   6
ATOM      2  O   UNL     1       3.340  -1.431  -1.367  0.00  0.00    -0.276 OA
ATOM      6  N   UNL     1       3.046  -0.227   0.601  0.00  0.00    -0.315 N 
ATOM     25  C   UNL     1       2.949  -1.362  -0.205  0.00  0.00    +0.214 C 
ATOM     30  H   UNL     1       2.742  -0.297   1.568  0.00  0.00    +0.149 HD
BRANCH  25  26
ATOM     26  C   UNL     1       2.294  -2.524   0.520  0.00  0.00    +0.107 C 
BRANCH  26  27
ATOM     27  C   UNL     1       2.183  -3.769  -0.353  0.00  0.00    +0.129 C 
BRANCH  27  28
ATOM      4  O   UNL     1       1.133  -4.887   1.536  0.00  0.00    -0.251 OA
ATOM     28  C   UNL     1       1.523  -4.915   0.378  0.00  0.00    +0.305 C 
BRANCH  28   3
ATOM      3  O   UNL     1       1.407  -6.010  -0.418  0.00  0.00    -0.481 OA
ATOM     31  H   UNL     1       0.979  -6.758   0.050  0.00  0.00    +0.295 HD
ENDBRANCH  28   3
ENDBRANCH  27  28
ENDBRANCH  26  27
ENDBRANCH  25  26
ENDBRANCH  15   6
ENDBRANCH   8  15
TORSDOF 10
