REMARK  Name = 75537072
REMARK  3 active torsions:
REMARK  status: ('A' for Active; 'I' for Inactive)
REMARK    1  A    between atoms: N_3  and  C_9
REMARK    2  A    between atoms: N_5  and  C_18
REMARK    3  A    between atoms: C_18  and  C_19
REMARK                            x       y       z     vdW  Elec       q    Type
REMARK                         _______ _______ _______ _____ _____    ______ ____
ROOT
ATOM      2  O   UNL     1       2.003  -2.691  -0.694  0.00  0.00    -0.252 OA
ATOM      3  N   UNL     1      -2.512  -0.521   0.125  0.00  0.00    -0.296 NA
ATOM      4  N   UNL     1       0.041  -1.701   0.137  0.00  0.00    -0.278 N 
ATOM      5  N   UNL     1       2.013  -1.009   0.960  0.00  0.00    -0.278 N 
ATOM      7  C   UNL     1      -0.311  -0.778   1.196  0.00  0.00    +0.109 C 
ATOM      8  C   UNL     1      -1.370   0.210   0.709  0.00  0.00    +0.108 C 
ATOM     10  C   UNL     1      -2.078  -1.347  -1.020  0.00  0.00    +0.104 C 
ATOM     11  C   UNL     1       1.024  -0.148   1.586  0.00  0.00    +0.133 C 
ATOM     12  C   UNL     1      -1.011  -2.364  -0.605  0.00  0.00    +0.125 C 
ATOM     15  C   UNL     1       1.425  -1.904   0.043  0.00  0.00    +0.306 C 
ENDROOT
BRANCH   3   9
ATOM      1  O   UNL     1      -6.249   1.388   0.007  0.00  0.00    -0.380 OA
ATOM      9  C   UNL     1      -3.557   0.412  -0.289  0.00  0.00    +0.061 C 
ATOM     13  C   UNL     1      -3.979   1.316   0.874  0.00  0.00    +0.047 C 
ATOM     14  C   UNL     1      -4.771  -0.351  -0.827  0.00  0.00    +0.047 C 
ATOM     16  C   UNL     1      -5.159   2.190   0.463  0.00  0.00    +0.161 C 
ATOM     17  C   UNL     1      -5.907   0.616  -1.143  0.00  0.00    +0.161 C 
ENDBRANCH   3   9
BRANCH   5  18
ATOM     18  C   UNL     1       3.432  -0.827   1.171  0.00  0.00    +0.164 C 
BRANCH  18  19
ATOM      6  N   UNL     1       4.270   1.440   0.923  0.00  0.00    -0.258 NA
ATOM     19  C   UNL     1       3.993   0.267   0.310  0.00  0.00    +0.059 A 
ATOM     20  C   UNL     1       4.196   0.031  -1.040  0.00  0.00    +0.025 A 
ATOM     21  C   UNL     1       4.717   1.064  -1.810  0.00  0.00    +0.003 A 
ATOM     22  C   UNL     1       4.775   2.421   0.142  0.00  0.00    +0.111 A 
ATOM     23  C   UNL     1       5.016   2.285  -1.216  0.00  0.00    +0.020 A 
ENDBRANCH  18  19
ENDBRANCH   5  18
TORSDOF 3
