REMARK  Name = 11912130
REMARK  6 active torsions:
REMARK  status: ('A' for Active; 'I' for Inactive)
REMARK    1  A    between atoms: N_5  and  C_16
REMARK    2  A    between atoms: C_9  and  C_12
REMARK    3  A    between atoms: C_12  and  C_16
REMARK    4  A    between atoms: C_16  and  C_20
REMARK    5  A    between atoms: C_17  and  C_19
REMARK    6  A    between atoms: C_23  and  C_24
REMARK                            x       y       z     vdW  Elec       q    Type
REMARK                         _______ _______ _______ _____ _____    ______ ____
ROOT
ATOM      2  O   UNL     1      -0.449   0.672   1.031  0.00  0.00    -0.274 OA
ATOM      5  N   UNL     1       1.205   0.923  -0.589  0.00  0.00    -0.302 N 
ATOM     19  C   UNL     1      -0.019   0.485  -0.104  0.00  0.00    +0.235 C 
ATOM     28  H   UNL     1       1.409   0.816  -1.578  0.00  0.00    +0.150 HD
ENDROOT
BRANCH  19  17
ATOM      4  O   UNL     1      -3.097   1.351  -1.411  0.00  0.00    -0.269 OA
ATOM      6  N   UNL     1      -2.112  -0.553  -0.526  0.00  0.00    -0.283 N 
ATOM      7  N   UNL     1      -0.074  -2.581  -0.685  0.00  0.00    -0.312 NA
ATOM     17  C   UNL     1      -0.817  -0.248  -1.144  0.00  0.00    +0.176 C 
ATOM     18  C   UNL     1      -0.085  -1.488  -1.659  0.00  0.00    +0.113 C 
ATOM     21  C   UNL     1      -2.157  -1.750   0.330  0.00  0.00    +0.124 C 
ATOM     22  C   UNL     1      -1.439  -2.936  -0.304  0.00  0.00    +0.100 C 
ATOM     23  C   UNL     1      -3.178   0.360  -0.683  0.00  0.00    +0.254 C 
ATOM     29  H   UNL     1       0.439  -2.283   0.145  0.00  0.00    +0.122 HD
BRANCH  23  24
ATOM      1  S   UNL     1      -5.867  -0.138  -0.806  0.00  0.00    -0.092 S 
ATOM     24  C   UNL     1      -4.407   0.094   0.058  0.00  0.00    +0.074 A 
ATOM     25  C   UNL     1      -4.591  -0.005   1.420  0.00  0.00    +0.021 A 
ATOM     26  C   UNL     1      -5.948  -0.276   1.758  0.00  0.00    +0.008 A 
ATOM     27  C   UNL     1      -6.750  -0.373   0.642  0.00  0.00    +0.046 A 
ENDBRANCH  23  24
ENDBRANCH  19  17
BRANCH   5  16
ATOM     16  C   UNL     1       2.148   1.670   0.203  0.00  0.00    +0.159 C 
BRANCH  16  20
ATOM      3  O   UNL     1       1.342   3.686  -0.889  0.00  0.00    -0.274 OA
ATOM      8  N   UNL     1       2.054   3.830   1.290  0.00  0.00    -0.328 N 
ATOM     20  C   UNL     1       1.790   3.148   0.121  0.00  0.00    +0.231 C 
ATOM     30  H   UNL     1       1.868   4.825   1.364  0.00  0.00    +0.145 HD
ATOM     31  H   UNL     1       2.443   3.378   2.111  0.00  0.00    +0.145 HD
ENDBRANCH  16  20
BRANCH  16  12
ATOM     12  C   UNL     1       3.597   1.386  -0.200  0.00  0.00    +0.035 C 
BRANCH  12   9
ATOM      9  C   UNL     1       3.978  -0.092  -0.157  0.00  0.00    -0.009 C 
ATOM     10  C   UNL     1       3.768  -0.665   1.252  0.00  0.00    +0.003 C 
ATOM     11  C   UNL     1       5.429  -0.292  -0.617  0.00  0.00    +0.003 C 
ATOM     13  C   UNL     1       4.194  -2.129   1.334  0.00  0.00    +0.000 C 
ATOM     14  C   UNL     1       5.851  -1.757  -0.532  0.00  0.00    +0.000 C 
ATOM     15  C   UNL     1       5.633  -2.325   0.867  0.00  0.00    +0.000 C 
ENDBRANCH  12   9
ENDBRANCH  16  12
ENDBRANCH   5  16
TORSDOF 6
