REMARK  Name = 40779427
REMARK  9 active torsions:
REMARK  status: ('A' for Active; 'I' for Inactive)
REMARK    1  A    between atoms: S_1  and  N_6
REMARK    2  A    between atoms: S_1  and  C_25
REMARK    3  A    between atoms: N_5  and  C_24
REMARK    4  A    between atoms: N_6  and  C_16
REMARK    5  A    between atoms: C_9  and  C_15
REMARK    6  A    between atoms: C_10  and  C_16
REMARK    7  A    between atoms: C_18  and  C_19
REMARK    8  A    between atoms: C_25  and  C_26
REMARK    9  A    between atoms: C_26  and  C_27
REMARK                            x       y       z     vdW  Elec       q    Type
REMARK                         _______ _______ _______ _____ _____    ______ ____
ROOT
ATOM      4  N   UNL     1       0.066   3.234   1.201  0.00  0.00    -0.297 NA
ATOM      8  C   UNL     1      -1.229   2.721  -1.000  0.00  0.00    +0.002 C 
ATOM      9  C   UNL     1      -1.900   2.006   0.205  0.00  0.00    +0.055 C 
ATOM     10  C   UNL     1       1.014   2.788   0.146  0.00  0.00    +0.072 C 
ATOM     11  C   UNL     1       0.248   2.283  -1.096  0.00  0.00    +0.024 C 
ATOM     12  C   UNL     1      -0.964   2.192   1.434  0.00  0.00    +0.094 C 
ATOM     13  C   UNL     1      -1.234   4.232  -0.680  0.00  0.00    +0.019 C 
ATOM     14  C   UNL     1      -0.616   4.457   0.711  0.00  0.00    +0.085 C 
ENDROOT
BRANCH   9  15
ATOM      5  N   UNL     1      -3.576   0.209  -0.430  0.00  0.00    -0.271 N 
ATOM      7  N   UNL     1      -3.767  -1.119  -0.514  0.00  0.00    -0.176 NA
ATOM     15  C   UNL     1      -2.340   0.560   0.028  0.00  0.00    +0.044 A 
ATOM     17  C   UNL     1      -1.676  -0.621   0.259  0.00  0.00    +0.048 A 
ATOM     19  C   UNL     1      -2.603  -1.620  -0.092  0.00  0.00    +0.066 A 
ATOM     24  C   UNL     1      -4.646   1.101  -0.811  0.00  0.00    +0.172 C 
BRANCH  19  18
ATOM     18  C   UNL     1      -2.406  -3.119  -0.037  0.00  0.00    +0.040 C 
ATOM     20  C   UNL     1      -1.256  -3.596  -0.942  0.00  0.00    +0.010 C 
ATOM     21  C   UNL     1      -2.089  -3.671   1.368  0.00  0.00    +0.010 C 
ATOM     22  C   UNL     1      -0.623  -4.753  -0.184  0.00  0.00    +0.001 C 
ATOM     23  C   UNL     1      -0.704  -4.300   1.263  0.00  0.00    +0.001 C 
ENDBRANCH  19  18
ENDBRANCH   9  15
BRANCH  10  16
ATOM     16  C   UNL     1       2.012   1.749   0.661  0.00  0.00    +0.124 C 
BRANCH  16   6
ATOM      6  N   UNL     1       2.990   1.450  -0.398  0.00  0.00    -0.193 NA
ATOM     28  H   UNL     1       2.619   1.452  -1.357  0.00  0.00    +0.148 HD
BRANCH   6   1
ATOM      1  S   UNL     1       4.233   0.319  -0.092  0.00  0.00    +0.029 S 
ATOM      2  O   UNL     1       4.572   0.333   1.318  0.00  0.00    -0.158 OA
ATOM      3  O   UNL     1       5.260   0.477  -1.104  0.00  0.00    -0.158 OA
BRANCH   1  25
ATOM     25  C   UNL     1       3.380  -1.203  -0.435  0.00  0.00    +0.185 C 
BRANCH  25  26
ATOM     26  C   UNL     1       4.288  -2.404  -0.233  0.00  0.00    +0.021 C 
ATOM     27  C   UNL     1       3.567  -3.705  -0.544  0.00  0.00    +0.005 C 
ENDBRANCH  25  26
ENDBRANCH   1  25
ENDBRANCH   6   1
ENDBRANCH  16   6
ENDBRANCH  10  16
TORSDOF 7
