REMARK  Name = 40777119
REMARK  6 active torsions:
REMARK  status: ('A' for Active; 'I' for Inactive)
REMARK    1  A    between atoms: N_4  and  C_14
REMARK    2  A    between atoms: C_8  and  C_15
REMARK    3  A    between atoms: C_9  and  C_14
REMARK    4  A    between atoms: C_17  and  C_20
REMARK    5  A    between atoms: C_18  and  C_21
REMARK    6  A    between atoms: C_19  and  C_22
REMARK                            x       y       z     vdW  Elec       q    Type
REMARK                         _______ _______ _______ _____ _____    ______ ____
ROOT
ATOM      3  N   UNL     1       0.841   2.714   1.155  0.00  0.00    -0.297 NA
ATOM      7  C   UNL     1       0.327   2.393  -1.378  0.00  0.00    +0.002 C 
ATOM      8  C   UNL     1      -0.953   2.155  -0.529  0.00  0.00    +0.055 C 
ATOM      9  C   UNL     1       1.845   1.803   0.544  0.00  0.00    +0.074 C 
ATOM     10  C   UNL     1       1.440   1.437  -0.900  0.00  0.00    +0.024 C 
ATOM     11  C   UNL     1       0.801   3.830  -1.075  0.00  0.00    +0.019 C 
ATOM     12  C   UNL     1      -0.525   2.165   0.967  0.00  0.00    +0.094 C 
ATOM     13  C   UNL     1       0.918   4.015   0.448  0.00  0.00    +0.085 C 
ENDROOT
BRANCH   8  15
ATOM      5  N   UNL     1      -1.421   0.179  -1.891  0.00  0.00    -0.237 NA
ATOM      6  N   UNL     1      -3.367  -1.197  -1.531  0.00  0.00    -0.232 NA
ATOM     15  C   UNL     1      -1.831   0.960  -0.871  0.00  0.00    +0.050 A 
ATOM     16  C   UNL     1      -2.981   0.731  -0.143  0.00  0.00    +0.052 A 
ATOM     17  C   UNL     1      -3.717  -0.373  -0.522  0.00  0.00    +0.076 A 
ATOM     18  C   UNL     1      -2.224  -0.867  -2.164  0.00  0.00    +0.127 A 
ATOM     21  C   UNL     1      -1.805  -1.754  -3.287  0.00  0.00    +0.088 C 
BRANCH  17  20
ATOM      1 BR   UNL     1      -3.372  -2.338   1.978  0.00  0.00    -0.050 Br
ATOM     20  C   UNL     1      -4.942  -0.722   0.158  0.00  0.00    +0.014 A 
ATOM     23  C   UNL     1      -4.957  -1.569   1.266  0.00  0.00    +0.027 A 
ATOM     24  C   UNL     1      -6.134  -0.184  -0.326  0.00  0.00    +0.011 A 
ATOM     27  C   UNL     1      -6.166  -1.877   1.891  0.00  0.00    +0.016 A 
ATOM     28  C   UNL     1      -7.343  -0.492   0.299  0.00  0.00    +0.001 A 
ATOM     31  C   UNL     1      -7.359  -1.339   1.407  0.00  0.00    +0.001 A 
ENDBRANCH  17  20
ENDBRANCH   8  15
BRANCH   9  14
ATOM     14  C   UNL     1       2.099   0.559   1.398  0.00  0.00    +0.123 C 
BRANCH  14   4
ATOM      2  O   UNL     1       4.903   0.778   1.977  0.00  0.00    -0.270 OA
ATOM      4  N   UNL     1       3.151  -0.235   0.842  0.00  0.00    -0.310 N 
ATOM     19  C   UNL     1       4.492  -0.061   1.180  0.00  0.00    +0.244 C 
ATOM     33  H   UNL     1       2.886  -0.906   0.129  0.00  0.00    +0.149 HD
BRANCH  19  22
ATOM     22  C   UNL     1       5.465  -0.950   0.494  0.00  0.00    +0.037 A 
ATOM     25  C   UNL     1       6.783  -0.530   0.309  0.00  0.00    +0.013 A 
ATOM     26  C   UNL     1       5.062  -2.204   0.037  0.00  0.00    +0.013 A 
ATOM     29  C   UNL     1       7.697  -1.365  -0.334  0.00  0.00    +0.001 A 
ATOM     30  C   UNL     1       5.976  -3.039  -0.605  0.00  0.00    +0.001 A 
ATOM     32  C   UNL     1       7.294  -2.620  -0.790  0.00  0.00    +0.000 A 
ENDBRANCH  19  22
ENDBRANCH  14   4
ENDBRANCH   9  14
TORSDOF 5
