REMARK  Name = 45360769
REMARK  12 active torsions:
REMARK  status: ('A' for Active; 'I' for Inactive)
REMARK    1  A    between atoms: O_3  and  C_24
REMARK    2  A    between atoms: O_3  and  C_30
REMARK    3  A    between atoms: N_6  and  C_11
REMARK    4  A    between atoms: N_6  and  C_21
REMARK    5  A    between atoms: N_8  and  C_31
REMARK    6  A    between atoms: N_8  and  C_32
REMARK    7  A    between atoms: N_8  and  C_33
REMARK    8  A    between atoms: C_10  and  C_15
REMARK    9  A    between atoms: C_15  and  C_17
REMARK   10  A    between atoms: C_17  and  C_19
REMARK   11  A    between atoms: C_18  and  C_24
REMARK   12  A    between atoms: C_21  and  C_25
REMARK                            x       y       z     vdW  Elec       q    Type
REMARK                         _______ _______ _______ _____ _____    ______ ____
ROOT
ATOM      1  O   UNL     1       0.905   5.359   0.035  0.00  0.00    -0.274 OA
ATOM      4  N   UNL     1      -1.038   2.275   0.222  0.00  0.00    -0.286 NA
ATOM      5  N   UNL     1      -0.774   4.614  -1.305  0.00  0.00    -0.313 N 
ATOM      9  C   UNL     1      -0.186   3.345   0.754  0.00  0.00    +0.145 C 
ATOM     10  C   UNL     1      -2.177   2.746  -0.558  0.00  0.00    +0.075 C 
ATOM     11  C   UNL     1       0.939   1.195   0.663  0.00  0.00    +0.070 C 
ATOM     12  C   UNL     1       1.142   2.648   1.092  0.00  0.00    +0.048 C 
ATOM     13  C   UNL     1      -0.155   1.286  -0.393  0.00  0.00    +0.104 C 
ATOM     14  C   UNL     1      -1.716   3.603  -1.726  0.00  0.00    +0.123 C 
ATOM     16  C   UNL     1       0.045   4.507  -0.207  0.00  0.00    +0.230 C 
ATOM     34  H   UNL     1      -0.625   5.404  -1.926  0.00  0.00    +0.149 HD
ENDROOT
BRANCH  11   6
ATOM      6  N   UNL     1       2.158   0.567   0.181  0.00  0.00    -0.308 NA
ATOM     35  H   UNL     1       1.913  -0.250  -0.379  0.00  0.00    +0.123 HD
BRANCH   6  21
ATOM     21  C   UNL     1       3.003   0.143   1.291  0.00  0.00    +0.116 C 
BRANCH  21  25
ATOM     25  C   UNL     1       4.278  -0.497   0.812  0.00  0.00    -0.033 A 
ATOM     26  C   UNL     1       4.261  -1.803   0.321  0.00  0.00    +0.007 A 
ATOM     27  C   UNL     1       5.477   0.214   0.860  0.00  0.00    +0.007 A 
ATOM     28  C   UNL     1       5.443  -2.397  -0.122  0.00  0.00    +0.023 A 
ATOM     29  C   UNL     1       6.659  -0.380   0.417  0.00  0.00    +0.023 A 
ATOM     31  C   UNL     1       6.642  -1.685  -0.074  0.00  0.00    +0.029 A 
BRANCH  31   8
ATOM      8  N   UNL     1       7.837  -2.286  -0.523  0.00  0.00    -0.336 N 
ATOM     32  C   UNL     1       7.829  -3.642  -1.035  0.00  0.00    +0.129 C 
ATOM     33  C   UNL     1       9.086  -1.552  -0.484  0.00  0.00    +0.129 C 
ENDBRANCH  31   8
ENDBRANCH  21  25
ENDBRANCH   6  21
ENDBRANCH  11   6
BRANCH  10  15
ATOM     15  C   UNL     1      -3.081   1.608  -1.035  0.00  0.00    +0.029 C 
BRANCH  15  17
ATOM     17  C   UNL     1      -3.618   0.770   0.116  0.00  0.00    +0.097 C 
BRANCH  17  19
ATOM      2  O   UNL     1      -4.765  -0.428  -1.591  0.00  0.00    -0.276 OA
ATOM      7  N   UNL     1      -5.084  -1.133   0.590  0.00  0.00    -0.296 N 
ATOM     18  C   UNL     1      -6.072  -2.171   0.287  0.00  0.00    +0.102 C 
ATOM     19  C   UNL     1      -4.540  -0.312  -0.385  0.00  0.00    +0.216 C 
ATOM     20  C   UNL     1      -6.691  -2.492   1.650  0.00  0.00    +0.026 C 
ATOM     22  C   UNL     1      -4.846  -1.032   2.028  0.00  0.00    +0.108 C 
ATOM     23  C   UNL     1      -5.546  -2.243   2.625  0.00  0.00    +0.021 C 
BRANCH  18  24
ATOM     24  C   UNL     1      -5.418  -3.394  -0.352  0.00  0.00    +0.181 C 
BRANCH  24   3
ATOM      3  O   UNL     1      -5.302  -3.165  -1.744  0.00  0.00    -0.381 OA
ATOM     30  C   UNL     1      -4.698  -4.268  -2.411  0.00  0.00    +0.194 C 
ENDBRANCH  24   3
ENDBRANCH  18  24
ENDBRANCH  17  19
ENDBRANCH  15  17
ENDBRANCH  10  15
TORSDOF 9
