REMARK  Name = 45783544
REMARK  9 active torsions:
REMARK  status: ('A' for Active; 'I' for Inactive)
REMARK    1  A    between atoms: O_3  and  C_26
REMARK    2  A    between atoms: O_3  and  C_27
REMARK    3  A    between atoms: O_4  and  C_28
REMARK    4  A    between atoms: O_4  and  C_29
REMARK    5  A    between atoms: N_5  and  C_13
REMARK    6  A    between atoms: C_9  and  C_14
REMARK    7  A    between atoms: C_13  and  C_15
REMARK    8  A    between atoms: C_18  and  C_21
REMARK    9  A    between atoms: C_27  and  C_28
REMARK                            x       y       z     vdW  Elec       q    Type
REMARK                         _______ _______ _______ _____ _____    ______ ____
ROOT
ATOM      2  O   UNL     1       0.806   3.249   1.084  0.00  0.00    -0.336 OA
ATOM      6  N   UNL     1       0.543   1.390  -0.138  0.00  0.00    -0.190 NA
ATOM      7  N   UNL     1      -0.538   2.881   1.220  0.00  0.00    -0.056 NA
ATOM     14  C   UNL     1       1.370   2.319   0.269  0.00  0.00    +0.245 A 
ATOM     18  C   UNL     1      -0.616   1.777   0.471  0.00  0.00    +0.204 A 
ENDROOT
BRANCH  18  21
ATOM      8  N   UNL     1      -4.184   0.791   0.823  0.00  0.00    -0.221 NA
ATOM     21  C   UNL     1      -1.835   1.038   0.309  0.00  0.00    +0.041 A 
ATOM     23  C   UNL     1      -1.879  -0.106  -0.480  0.00  0.00    +0.018 A 
ATOM     24  C   UNL     1      -3.004   1.441   0.933  0.00  0.00    +0.126 A 
ATOM     25  C   UNL     1      -3.075  -0.802  -0.618  0.00  0.00    +0.068 A 
ATOM     26  C   UNL     1      -4.189  -0.317   0.048  0.00  0.00    +0.215 A 
BRANCH  26   3
ATOM      3  O   UNL     1      -5.379  -0.986  -0.072  0.00  0.00    -0.474 OA
BRANCH   3  27
ATOM     27  C   UNL     1      -6.490  -0.445   0.632  0.00  0.00    +0.258 C 
BRANCH  27  28
ATOM     28  C   UNL     1      -7.712  -1.301   0.360  0.00  0.00    +0.200 C 
BRANCH  28   4
ATOM      4  O   UNL     1      -7.990  -1.284  -1.035  0.00  0.00    -0.380 OA
ATOM     29  C   UNL     1      -9.116  -2.090  -1.351  0.00  0.00    +0.194 C 
ENDBRANCH  28   4
ENDBRANCH  27  28
ENDBRANCH   3  27
ENDBRANCH  26   3
ENDBRANCH  18  21
BRANCH  14   9
ATOM      5  N   UNL     1       3.516   1.216  -0.341  0.00  0.00    -0.287 NA
ATOM      9  C   UNL     1       2.843   2.494  -0.037  0.00  0.00    +0.146 C 
ATOM     10  C   UNL     1       3.092   3.372  -1.277  0.00  0.00    +0.030 C 
ATOM     11  C   UNL     1       3.962   2.526  -2.195  0.00  0.00    +0.017 C 
ATOM     12  C   UNL     1       4.614   1.533  -1.254  0.00  0.00    +0.085 C 
BRANCH   5  13
ATOM     13  C   UNL     1       3.978   0.512   0.848  0.00  0.00    +0.120 C 
BRANCH  13  15
ATOM      1 CL   UNL     1       4.859  -5.343  -0.217  0.00  0.00    -0.084 Cl
ATOM     15  C   UNL     1       4.199  -0.953   0.583  0.00  0.00    -0.033 A 
ATOM     16  C   UNL     1       3.156  -1.861   0.768  0.00  0.00    +0.006 A 
ATOM     17  C   UNL     1       5.447  -1.403   0.150  0.00  0.00    +0.006 A 
ATOM     19  C   UNL     1       3.361  -3.218   0.522  0.00  0.00    +0.020 A 
ATOM     20  C   UNL     1       5.651  -2.761  -0.096  0.00  0.00    +0.020 A 
ATOM     22  C   UNL     1       4.609  -3.668   0.090  0.00  0.00    +0.041 A 
ENDBRANCH  13  15
ENDBRANCH   5  13
ENDBRANCH  14   9
TORSDOF 8
