REMARK  Name = 26745299
REMARK  7 active torsions:
REMARK  status: ('A' for Active; 'I' for Inactive)
REMARK    1  A    between atoms: O_3  and  C_28
REMARK    2  A    between atoms: O_3  and  C_29
REMARK    3  A    between atoms: N_4  and  C_13
REMARK    4  A    between atoms: N_7  and  C_17
REMARK    5  A    between atoms: C_8  and  C_14
REMARK    6  A    between atoms: C_13  and  C_15
REMARK    7  A    between atoms: C_17  and  C_20
REMARK                            x       y       z     vdW  Elec       q    Type
REMARK                         _______ _______ _______ _____ _____    ______ ____
ROOT
ATOM      4  N   UNL     1       1.780   0.079   0.212  0.00  0.00    -0.281 NA
ATOM      5  N   UNL     1       5.483   0.057   0.775  0.00  0.00    -0.347 N 
ATOM      6  N   UNL     1       5.450   2.014  -0.307  0.00  0.00    -0.240 NA
ATOM      8  C   UNL     1       1.699   1.567   0.169  0.00  0.00    +0.150 C 
ATOM      9  C   UNL     1       2.931   2.230  -0.518  0.00  0.00    +0.085 C 
ATOM     10  C   UNL     1       2.970  -0.393   0.976  0.00  0.00    +0.140 C 
ATOM     11  C   UNL     1       4.173   0.362   0.566  0.00  0.00    +0.053 A 
ATOM     12  C   UNL     1       4.178   1.565  -0.091  0.00  0.00    +0.065 A 
ATOM     16  C   UNL     1       6.215   1.083   0.230  0.00  0.00    +0.197 A 
ATOM     30  H   UNL     1       5.851  -0.761   1.242  0.00  0.00    +0.167 HD
ENDROOT
BRANCH   8  14
ATOM      2  O   UNL     1       0.350   1.628  -1.799  0.00  0.00    -0.274 OA
ATOM      7  N   UNL     1      -0.381   2.751   0.105  0.00  0.00    -0.310 N 
ATOM     14  C   UNL     1       0.494   1.966  -0.627  0.00  0.00    +0.231 C 
ATOM     31  H   UNL     1      -0.173   2.965   1.076  0.00  0.00    +0.149 HD
BRANCH   7  17
ATOM     17  C   UNL     1      -1.609   3.285  -0.440  0.00  0.00    +0.139 C 
BRANCH  17  20
ATOM     20  C   UNL     1      -2.766   2.349  -0.239  0.00  0.00    -0.030 A 
ATOM     24  C   UNL     1      -3.466   1.859  -1.341  0.00  0.00    +0.009 A 
ATOM     25  C   UNL     1      -3.141   1.971   1.050  0.00  0.00    +0.009 A 
ATOM     26  C   UNL     1      -4.541   0.990  -1.154  0.00  0.00    +0.046 A 
ATOM     27  C   UNL     1      -4.216   1.102   1.238  0.00  0.00    +0.046 A 
ATOM     28  C   UNL     1      -4.916   0.611   0.136  0.00  0.00    +0.120 A 
BRANCH  28   3
ATOM      3  O   UNL     1      -5.964  -0.237   0.318  0.00  0.00    -0.495 OA
ATOM     29  C   UNL     1      -6.293  -0.582   1.663  0.00  0.00    +0.277 C 
ENDBRANCH  28   3
ENDBRANCH  17  20
ENDBRANCH   7  17
ENDBRANCH   8  14
BRANCH   4  13
ATOM     13  C   UNL     1       0.579  -0.531   0.796  0.00  0.00    +0.120 C 
BRANCH  13  15
ATOM      1 CL   UNL     1      -0.207  -6.188  -1.080  0.00  0.00    -0.084 Cl
ATOM     15  C   UNL     1       0.383  -1.944   0.328  0.00  0.00    -0.033 A 
ATOM     18  C   UNL     1      -0.365  -2.200  -0.821  0.00  0.00    +0.006 A 
ATOM     19  C   UNL     1       0.947  -3.000   1.043  0.00  0.00    +0.006 A 
ATOM     21  C   UNL     1      -0.548  -3.513  -1.256  0.00  0.00    +0.020 A 
ATOM     22  C   UNL     1       0.764  -4.313   0.608  0.00  0.00    +0.020 A 
ATOM     23  C   UNL     1       0.017  -4.569  -0.541  0.00  0.00    +0.041 A 
ENDBRANCH  13  15
ENDBRANCH   4  13
TORSDOF 6
