REMARK  Name = 11941477
REMARK  3 active torsions:
REMARK  status: ('A' for Active; 'I' for Inactive)
REMARK    1  A    between atoms: N_7  and  C_10
REMARK    2  A    between atoms: C_19  and  C_21
REMARK    3  A    between atoms: C_24  and  C_27
REMARK                            x       y       z     vdW  Elec       q    Type
REMARK                         _______ _______ _______ _____ _____    ______ ____
ROOT
ATOM      4  O   UNL     1      -5.311  -1.474   0.362  0.00  0.00    -0.273 OA
ATOM      5  O   UNL     1      -1.471   1.226  -2.025  0.00  0.00    -0.270 OA
ATOM      6  N   UNL     1      -3.228   0.898  -0.577  0.00  0.00    -0.284 N 
ATOM      8  N   UNL     1      -3.089  -1.941   0.178  0.00  0.00    -0.283 N 
ATOM      9  C   UNL     1      -3.786   0.372   0.656  0.00  0.00    +0.179 C 
ATOM     10  C   UNL     1      -5.003   1.267   0.952  0.00  0.00    +0.082 C 
ATOM     11  C   UNL     1      -5.419   1.748  -0.443  0.00  0.00    +0.040 C 
ATOM     12  C   UNL     1      -4.100   1.894  -1.184  0.00  0.00    +0.110 C 
ATOM     13  C   UNL     1      -4.146  -1.072   0.353  0.00  0.00    +0.239 C 
ATOM     14  C   UNL     1      -1.965   0.636  -1.064  0.00  0.00    +0.249 C 
ATOM     15  C   UNL     1      -1.172  -0.436  -0.409  0.00  0.00    +0.059 A 
ATOM     16  C   UNL     1      -1.713  -1.642   0.069  0.00  0.00    +0.046 A 
ATOM     17  C   UNL     1       0.225  -0.269  -0.439  0.00  0.00    +0.023 A 
ATOM     18  C   UNL     1      -0.838  -2.677   0.442  0.00  0.00    +0.024 A 
ATOM     19  C   UNL     1       1.076  -1.290  -0.020  0.00  0.00    -0.017 A 
ATOM     20  C   UNL     1       0.545  -2.499   0.409  0.00  0.00    +0.010 A 
ATOM     30  H   UNL     1      -3.327  -2.929   0.215  0.00  0.00    +0.155 HD
ENDROOT
BRANCH  19  21
ATOM     21  C   UNL     1       2.510  -1.099  -0.052  0.00  0.00    -0.017 A 
ATOM     22  C   UNL     1       3.049   0.173   0.138  0.00  0.00    +0.021 A 
ATOM     23  C   UNL     1       3.353  -2.188  -0.276  0.00  0.00    +0.008 A 
ATOM     24  C   UNL     1       4.431   0.357   0.105  0.00  0.00    +0.055 A 
ATOM     25  C   UNL     1       4.736  -2.004  -0.309  0.00  0.00    +0.001 A 
ATOM     26  C   UNL     1       5.275  -0.732  -0.118  0.00  0.00    +0.012 A 
BRANCH  24  27
ATOM      1  F   UNL     1       6.373   1.747   0.250  0.00  0.00    -0.166 F 
ATOM      2  F   UNL     1       4.593   2.631  -0.618  0.00  0.00    -0.166 F 
ATOM      3  F   UNL     1       4.683   2.250   1.522  0.00  0.00    -0.166 F 
ATOM     27  C   UNL     1       5.009   1.717   0.308  0.00  0.00    +0.417 C 
ENDBRANCH  24  27
ENDBRANCH  19  21
BRANCH  10   7
ATOM      7  N   UNL     1      -4.617   2.406   1.790  0.00  0.00    -0.325 NA
ATOM     28  H   UNL     1      -4.327   2.069   2.707  0.00  0.00    +0.119 HD
ATOM     29  H   UNL     1      -5.427   3.004   1.945  0.00  0.00    +0.119 HD
ENDBRANCH  10   7
TORSDOF 3
