REMARK  Name = 28962508
REMARK  10 active torsions:
REMARK  status: ('A' for Active; 'I' for Inactive)
REMARK    1  A    between atoms: O_2  and  C_10
REMARK    2  A    between atoms: N_5  and  C_14
REMARK    3  A    between atoms: N_6  and  C_24
REMARK    4  A    between atoms: C_7  and  C_17
REMARK    5  A    between atoms: C_9  and  C_19
REMARK    6  A    between atoms: C_13  and  C_18
REMARK    7  A    between atoms: C_18  and  C_20
REMARK    8  A    between atoms: C_18  and  C_21
REMARK    9  A    between atoms: C_22  and  C_23
REMARK   10  A    between atoms: C_24  and  C_25
REMARK                            x       y       z     vdW  Elec       q    Type
REMARK                         _______ _______ _______ _____ _____    ______ ____
ROOT
ATOM      7  C   UNL     1      -1.458   0.205   1.401  0.00  0.00    -0.027 C 
ATOM      8  C   UNL     1      -1.613  -0.321  -0.064  0.00  0.00    +0.028 C 
ATOM      9  C   UNL     1      -3.108  -0.697  -0.368  0.00  0.00    +0.012 C 
ATOM     10  C   UNL     1      -0.568  -1.431  -0.378  0.00  0.00    +0.122 C 
ATOM     11  C   UNL     1      -0.001   0.671   1.631  0.00  0.00    +0.007 C 
ATOM     12  C   UNL     1      -2.381   1.431   1.597  0.00  0.00    +0.009 C 
ATOM     13  C   UNL     1       0.879  -0.995  -0.048  0.00  0.00    +0.029 C 
ATOM     14  C   UNL     1      -4.035   0.521  -0.096  0.00  0.00    +0.076 C 
ATOM     15  C   UNL     1       1.022  -0.424   1.363  0.00  0.00    +0.007 C 
ATOM     16  C   UNL     1      -3.842   1.134   1.290  0.00  0.00    +0.023 C 
ATOM     17  C   UNL     1      -1.809  -0.871   2.460  0.00  0.00    +0.011 C 
ATOM     19  C   UNL     1      -3.337  -1.196  -1.805  0.00  0.00    +0.010 C 
ENDROOT
BRANCH  14   5
ATOM      4  O   UNL     1      -6.183   2.244  -1.016  0.00  0.00    -0.276 OA
ATOM      5  N   UNL     1      -5.433   0.177  -0.254  0.00  0.00    -0.312 N 
ATOM     22  C   UNL     1      -6.385   1.074  -0.702  0.00  0.00    +0.210 C 
ATOM     23  C   UNL     1      -7.752   0.451  -0.798  0.00  0.00    +0.109 C 
ATOM     29  H   UNL     1      -5.729  -0.751   0.033  0.00  0.00    +0.149 HD
ENDBRANCH  14   5
BRANCH  10   2
ATOM      2  O   UNL     1      -0.596  -1.731  -1.774  0.00  0.00    -0.391 OA
ATOM     30  H   UNL     1      -0.380  -0.918  -2.262  0.00  0.00    +0.210 HD
ENDBRANCH  10   2
BRANCH  13  18
ATOM     18  C   UNL     1       1.876  -2.144  -0.240  0.00  0.00    +0.077 C 
ATOM     20  C   UNL     1       1.507  -3.316   0.663  0.00  0.00    +0.017 C 
BRANCH  18  21
ATOM      3  O   UNL     1       3.815  -1.721   1.149  0.00  0.00    -0.276 OA
ATOM      6  N   UNL     1       3.906  -1.131  -1.093  0.00  0.00    -0.310 N 
ATOM     21  C   UNL     1       3.294  -1.653   0.037  0.00  0.00    +0.216 C 
ATOM     31  H   UNL     1       3.390  -1.090  -1.967  0.00  0.00    +0.149 HD
BRANCH   6  24
ATOM     24  C   UNL     1       5.250  -0.602  -1.079  0.00  0.00    +0.146 C 
BRANCH  24  25
ATOM      1  S   UNL     1       6.640   1.485   0.120  0.00  0.00    -0.100 S 
ATOM     25  C   UNL     1       5.284   0.857  -0.716  0.00  0.00    +0.007 A 
ATOM     26  C   UNL     1       4.336   1.825  -0.966  0.00  0.00    +0.013 A 
ATOM     27  C   UNL     1       4.729   3.099  -0.464  0.00  0.00    +0.008 A 
ATOM     28  C   UNL     1       5.961   3.057   0.150  0.00  0.00    +0.045 A 
ENDBRANCH  24  25
ENDBRANCH   6  24
ENDBRANCH  18  21
ENDBRANCH  13  18
TORSDOF 6
