REMARK  Name = 28961418
REMARK  9 active torsions:
REMARK  status: ('A' for Active; 'I' for Inactive)
REMARK    1  A    between atoms: O_3  and  C_10
REMARK    2  A    between atoms: O_4  and  C_17
REMARK    3  A    between atoms: N_5  and  C_8
REMARK    4  A    between atoms: N_6  and  C_18
REMARK    5  A    between atoms: N_7  and  C_14
REMARK    6  A    between atoms: N_7  and  C_19
REMARK    7  A    between atoms: C_9  and  C_14
REMARK    8  A    between atoms: C_11  and  C_17
REMARK    9  A    between atoms: C_19  and  C_22
REMARK                            x       y       z     vdW  Elec       q    Type
REMARK                         _______ _______ _______ _____ _____    ______ ____
ROOT
ATOM      2  O   UNL     1       1.783   2.372   0.826  0.00  0.00    -0.366 OA
ATOM      8  C   UNL     1      -0.557   1.955   0.695  0.00  0.00    +0.118 C 
ATOM      9  C   UNL     1       0.814   1.305   0.923  0.00  0.00    +0.152 C 
ATOM     10  C   UNL     1      -0.221   3.180  -0.143  0.00  0.00    +0.165 C 
ATOM     11  C   UNL     1       1.103   3.596   0.488  0.00  0.00    +0.174 C 
ENDROOT
BRANCH   8   5
ATOM      5  N   UNL     1      -1.592   1.096   0.147  0.00  0.00    -0.292 NA
ATOM      6  N   UNL     1      -4.113  -0.246   0.104  0.00  0.00    -0.327 N 
ATOM     12  C   UNL     1      -1.843  -0.042   1.041  0.00  0.00    +0.104 C 
ATOM     13  C   UNL     1      -2.834   1.852  -0.058  0.00  0.00    +0.104 C 
ATOM     15  C   UNL     1      -2.892  -0.985   0.448  0.00  0.00    +0.120 C 
ATOM     16  C   UNL     1      -3.917   0.972  -0.687  0.00  0.00    +0.120 C 
BRANCH   6  18
ATOM     18  C   UNL     1      -5.306  -0.968  -0.018  0.00  0.00    +0.030 A 
ATOM     20  C   UNL     1      -5.800  -1.688   1.070  0.00  0.00    +0.023 A 
ATOM     21  C   UNL     1      -6.002  -0.966  -1.226  0.00  0.00    +0.023 A 
ATOM     23  C   UNL     1      -6.991  -2.405   0.949  0.00  0.00    +0.002 A 
ATOM     24  C   UNL     1      -7.192  -1.682  -1.347  0.00  0.00    +0.002 A 
ATOM     25  C   UNL     1      -7.687  -2.402  -0.259  0.00  0.00    +0.000 A 
ENDBRANCH   6  18
ENDBRANCH   8   5
BRANCH  10   3
ATOM      3  O   UNL     1      -0.032   2.840  -1.510  0.00  0.00    -0.388 OA
ATOM     31  H   UNL     1       0.073   3.668  -2.008  0.00  0.00    +0.210 HD
ENDBRANCH  10   3
BRANCH   9  14
ATOM     14  C   UNL     1       1.231   0.224  -0.069  0.00  0.00    +0.114 C 
BRANCH  14   7
ATOM      7  N   UNL     1       2.535  -0.324   0.276  0.00  0.00    -0.310 NA
ATOM     32  H   UNL     1       2.495  -0.725   1.213  0.00  0.00    +0.122 HD
BRANCH   7  19
ATOM     19  C   UNL     1       2.938  -1.350  -0.677  0.00  0.00    +0.116 C 
BRANCH  19  22
ATOM      1 CL   UNL     1       8.123  -0.827  -0.683  0.00  0.00    -0.084 Cl
ATOM     22  C   UNL     1       4.291  -1.921  -0.346  0.00  0.00    -0.032 A 
ATOM     26  C   UNL     1       5.445  -1.194  -0.634  0.00  0.00    +0.025 A 
ATOM     27  C   UNL     1       4.389  -3.180   0.248  0.00  0.00    +0.005 A 
ATOM     28  C   UNL     1       6.698  -1.724  -0.328  0.00  0.00    +0.041 A 
ATOM     29  C   UNL     1       5.642  -3.710   0.555  0.00  0.00    +0.002 A 
ATOM     30  C   UNL     1       6.797  -2.982   0.267  0.00  0.00    +0.020 A 
ENDBRANCH  19  22
ENDBRANCH   7  19
ENDBRANCH  14   7
ENDBRANCH   9  14
BRANCH  11  17
ATOM     17  C   UNL     1       2.006   4.445  -0.388  0.00  0.00    +0.190 C 
BRANCH  17   4
ATOM      4  O   UNL     1       3.184   4.760   0.336  0.00  0.00    -0.392 OA
ATOM     33  H   UNL     1       3.741   5.305  -0.246  0.00  0.00    +0.210 HD
ENDBRANCH  17   4
ENDBRANCH  11  17
TORSDOF 9
