REMARK  Name = 45361633
REMARK  12 active torsions:
REMARK  status: ('A' for Active; 'I' for Inactive)
REMARK    1  A    between atoms: O_1  and  C_12
REMARK    2  A    between atoms: O_4  and  C_29
REMARK    3  A    between atoms: O_4  and  C_31
REMARK    4  A    between atoms: N_5  and  C_16
REMARK    5  A    between atoms: N_6  and  C_26
REMARK    6  A    between atoms: C_9  and  C_19
REMARK    7  A    between atoms: C_11  and  C_21
REMARK    8  A    between atoms: C_15  and  C_20
REMARK    9  A    between atoms: C_20  and  C_22
REMARK   10  A    between atoms: C_20  and  C_23
REMARK   11  A    between atoms: C_24  and  C_25
REMARK   12  A    between atoms: C_26  and  C_29
REMARK                            x       y       z     vdW  Elec       q    Type
REMARK                         _______ _______ _______ _____ _____    ______ ____
ROOT
ATOM      9  C   UNL     1       0.607   0.580   1.310  0.00  0.00    -0.027 C 
ATOM     10  C   UNL     1       0.362  -0.225  -0.010  0.00  0.00    +0.028 C 
ATOM     11  C   UNL     1      -1.132  -0.703  -0.103  0.00  0.00    +0.012 C 
ATOM     12  C   UNL     1       1.433  -1.337  -0.199  0.00  0.00    +0.122 C 
ATOM     13  C   UNL     1       2.052   1.131   1.317  0.00  0.00    +0.007 C 
ATOM     14  C   UNL     1      -0.358   1.788   1.350  0.00  0.00    +0.009 C 
ATOM     15  C   UNL     1       2.877  -0.797  -0.086  0.00  0.00    +0.029 C 
ATOM     16  C   UNL     1      -2.095   0.512   0.014  0.00  0.00    +0.076 C 
ATOM     17  C   UNL     1       3.105   0.041   1.172  0.00  0.00    +0.007 C 
ATOM     18  C   UNL     1      -1.822   1.388   1.236  0.00  0.00    +0.023 C 
ATOM     19  C   UNL     1       0.397  -0.283   2.580  0.00  0.00    +0.011 C 
ATOM     21  C   UNL     1      -1.450  -1.478  -1.393  0.00  0.00    +0.010 C 
ENDROOT
BRANCH  16   5
ATOM      3  O   UNL     1      -4.346   1.962  -1.023  0.00  0.00    -0.270 OA
ATOM      5  N   UNL     1      -3.481   0.096   0.048  0.00  0.00    -0.308 N 
ATOM     24  C   UNL     1      -4.499   0.870  -0.482  0.00  0.00    +0.247 C 
ATOM     32  H   UNL     1      -3.698  -0.747   0.569  0.00  0.00    +0.149 HD
BRANCH  24  25
ATOM      7  N   UNL     1      -8.248   0.653  -0.173  0.00  0.00    -0.243 NA
ATOM      8  N   UNL     1      -7.340  -1.579  -0.127  0.00  0.00    -0.243 NA
ATOM     25  C   UNL     1      -5.871   0.315  -0.344  0.00  0.00    +0.073 A 
ATOM     27  C   UNL     1      -6.989   1.122  -0.298  0.00  0.00    +0.127 A 
ATOM     28  C   UNL     1      -6.109  -1.041  -0.253  0.00  0.00    +0.127 A 
ATOM     30  C   UNL     1      -8.349  -0.688  -0.094  0.00  0.00    +0.221 A 
ENDBRANCH  24  25
ENDBRANCH  16   5
BRANCH  12   1
ATOM      1  O   UNL     1       1.308  -1.902  -1.504  0.00  0.00    -0.391 OA
ATOM     33  H   UNL     1       1.440  -1.192  -2.155  0.00  0.00    +0.210 HD
ENDBRANCH  12   1
BRANCH  15  20
ATOM     20  C   UNL     1       3.913  -1.926  -0.144  0.00  0.00    +0.077 C 
ATOM     22  C   UNL     1       3.678  -2.914   0.993  0.00  0.00    +0.017 C 
BRANCH  20  23
ATOM      2  O   UNL     1       6.132  -1.641   0.783  0.00  0.00    -0.276 OA
ATOM      6  N   UNL     1       5.568  -0.454  -1.128  0.00  0.00    -0.313 N 
ATOM     23  C   UNL     1       5.322  -1.343  -0.092  0.00  0.00    +0.216 C 
ATOM     34  H   UNL     1       4.865  -0.303  -1.844  0.00  0.00    +0.149 HD
BRANCH   6  26
ATOM     26  C   UNL     1       6.831   0.229  -1.288  0.00  0.00    +0.132 C 
BRANCH  26  29
ATOM     29  C   UNL     1       6.847   1.555  -0.551  0.00  0.00    +0.178 C 
BRANCH  29   4
ATOM      4  O   UNL     1       5.838   2.404  -1.084  0.00  0.00    -0.381 OA
ATOM     31  C   UNL     1       5.816   3.664  -0.427  0.00  0.00    +0.194 C 
ENDBRANCH  29   4
ENDBRANCH  26  29
ENDBRANCH   6  26
ENDBRANCH  20  23
ENDBRANCH  15  20
TORSDOF 8
