REMARK  Name = 11865971
REMARK  8 active torsions:
REMARK  status: ('A' for Active; 'I' for Inactive)
REMARK    1  A    between atoms: S_1  and  C_25
REMARK    2  A    between atoms: S_1  and  C_31
REMARK    3  A    between atoms: O_6  and  C_26
REMARK    4  A    between atoms: O_6  and  C_32
REMARK    5  A    between atoms: N_10  and  C_15
REMARK    6  A    between atoms: C_21  and  C_22
REMARK    7  A    between atoms: C_22  and  C_24
REMARK    8  A    between atoms: C_23  and  C_25
REMARK                            x       y       z     vdW  Elec       q    Type
REMARK                         _______ _______ _______ _____ _____    ______ ____
ROOT
ATOM      2  O   UNL     1       0.062   0.544  -1.899  0.00  0.00    -0.273 OA
ATOM      3  O   UNL     1      -3.822   3.038   1.486  0.00  0.00    -0.274 OA
ATOM      4  O   UNL     1       1.821  -0.646   0.242  0.00  0.00    -0.275 OA
ATOM      7  N   UNL     1      -1.994   0.989  -0.919  0.00  0.00    -0.287 N 
ATOM      8  N   UNL     1       1.488   1.643   0.204  0.00  0.00    -0.288 N 
ATOM      9  N   UNL     1      -1.633   3.319   0.997  0.00  0.00    -0.309 N 
ATOM     11  C   UNL     1       0.028   1.600   0.271  0.00  0.00    +0.182 C 
ATOM     12  C   UNL     1      -0.404   3.069   0.277  0.00  0.00    +0.104 C 
ATOM     13  C   UNL     1      -2.814   1.220   0.275  0.00  0.00    +0.164 C 
ATOM     14  C   UNL     1      -4.238   0.839  -0.176  0.00  0.00    +0.055 C 
ATOM     15  C   UNL     1      -4.022  -0.134  -1.332  0.00  0.00    +0.092 C 
ATOM     16  C   UNL     1       0.803   3.786   0.876  0.00  0.00    +0.043 C 
ATOM     17  C   UNL     1      -2.788   0.442  -2.013  0.00  0.00    +0.131 C 
ATOM     18  C   UNL     1      -0.604   0.973  -0.959  0.00  0.00    +0.239 C 
ATOM     19  C   UNL     1       1.972   3.019   0.274  0.00  0.00    +0.110 C 
ATOM     20  C   UNL     1      -2.815   2.621   0.901  0.00  0.00    +0.234 C 
ATOM     21  C   UNL     1       2.267   0.501   0.307  0.00  0.00    +0.221 C 
ATOM     33  H   UNL     1      -1.695   4.213   1.475  0.00  0.00    +0.149 HD
ENDROOT
BRANCH  15  10
ATOM      5  O   UNL     1      -5.985  -2.227  -0.952  0.00  0.00    -0.275 OA
ATOM     10  N   UNL     1      -3.787  -1.476  -0.857  0.00  0.00    -0.310 N 
ATOM     23  C   UNL     1      -4.795  -2.416  -0.706  0.00  0.00    +0.223 C 
ATOM     34  H   UNL     1      -2.842  -1.715  -0.570  0.00  0.00    +0.149 HD
BRANCH  23  25
ATOM     25  C   UNL     1      -4.295  -3.740  -0.176  0.00  0.00    +0.164 C 
BRANCH  25   1
ATOM      1  S   UNL     1      -5.147  -4.110   1.375  0.00  0.00    -0.155 S 
ATOM     31  C   UNL     1      -4.618  -2.665   2.325  0.00  0.00    +0.085 C 
ENDBRANCH  25   1
ENDBRANCH  23  25
ENDBRANCH  15  10
BRANCH  21  22
ATOM     22  C   UNL     1       3.745   0.731   0.500  0.00  0.00    +0.134 C 
BRANCH  22  24
ATOM     24  C   UNL     1       4.478  -0.573   0.555  0.00  0.00    +0.003 A 
ATOM     26  C   UNL     1       4.976  -1.156  -0.608  0.00  0.00    +0.124 A 
ATOM     27  C   UNL     1       4.658  -1.199   1.786  0.00  0.00    +0.008 A 
ATOM     28  C   UNL     1       5.657  -2.372  -0.540  0.00  0.00    +0.046 A 
ATOM     29  C   UNL     1       5.339  -2.415   1.855  0.00  0.00    +0.001 A 
ATOM     30  C   UNL     1       5.838  -3.001   0.692  0.00  0.00    +0.004 A 
BRANCH  26   6
ATOM      6  O   UNL     1       4.807  -0.556  -1.820  0.00  0.00    -0.495 OA
ATOM     32  C   UNL     1       5.823   0.353  -2.239  0.00  0.00    +0.277 C 
ENDBRANCH  26   6
ENDBRANCH  22  24
ENDBRANCH  21  22
TORSDOF 6
