REMARK  Name = 51137813
REMARK  4 active torsions:
REMARK  status: ('A' for Active; 'I' for Inactive)
REMARK    1  A    between atoms: C_7  and  C_11
REMARK    2  A    between atoms: C_12  and  C_13
REMARK    3  A    between atoms: C_14  and  C_15
REMARK    4  A    between atoms: C_20  and  C_25
REMARK                            x       y       z     vdW  Elec       q    Type
REMARK                         _______ _______ _______ _____ _____    ______ ____
ROOT
ATOM      2  O   UNL     1       2.691  -0.447   2.477  0.00  0.00    -0.268 OA
ATOM      3  N   UNL     1       2.156   1.111   0.840  0.00  0.00    -0.296 N 
ATOM      7  C   UNL     1       1.048   2.743  -0.492  0.00  0.00    +0.095 C 
ATOM      8  C   UNL     1       1.380   3.339   0.885  0.00  0.00    +0.033 C 
ATOM      9  C   UNL     1       1.994   1.535  -0.552  0.00  0.00    +0.121 C 
ATOM     10  C   UNL     1       1.647   2.120   1.757  0.00  0.00    +0.109 C 
ATOM     12  C   UNL     1       2.641  -0.104   1.297  0.00  0.00    +0.265 C 
ENDROOT
BRANCH  12  13
ATOM      6  N   UNL     1       4.142  -0.644  -0.484  0.00  0.00    -0.250 NA
ATOM     13  C   UNL     1       3.119  -1.066   0.293  0.00  0.00    +0.126 A 
ATOM     16  C   UNL     1       2.528  -2.315   0.185  0.00  0.00    +0.033 A 
ATOM     19  C   UNL     1       3.019  -3.186  -0.781  0.00  0.00    +0.004 A 
ATOM     23  C   UNL     1       4.592  -1.518  -1.412  0.00  0.00    +0.111 A 
ATOM     24  C   UNL     1       4.071  -2.788  -1.599  0.00  0.00    +0.020 A 
ENDBRANCH  12  13
BRANCH   7  11
ATOM      1  O   UNL     1      -0.857   1.211  -0.258  0.00  0.00    -0.420 OA
ATOM      4  N   UNL     1      -1.403   3.222  -1.071  0.00  0.00    -0.112 NA
ATOM      5  N   UNL     1      -2.557   2.466  -0.991  0.00  0.00    -0.107 NA
ATOM     11  C   UNL     1      -0.436   2.450  -0.633  0.00  0.00    +0.222 A 
ATOM     14  C   UNL     1      -2.191   1.300  -0.511  0.00  0.00    +0.248 A 
BRANCH  14  15
ATOM     15  C   UNL     1      -2.965   0.129  -0.218  0.00  0.00    +0.038 A 
ATOM     17  C   UNL     1      -4.341   0.128  -0.446  0.00  0.00    +0.013 A 
ATOM     18  C   UNL     1      -2.342  -1.010   0.293  0.00  0.00    +0.013 A 
ATOM     20  C   UNL     1      -4.471  -2.150   0.350  0.00  0.00    -0.050 A 
ATOM     21  C   UNL     1      -5.094  -1.011  -0.162  0.00  0.00    +0.004 A 
ATOM     22  C   UNL     1      -3.095  -2.149   0.577  0.00  0.00    +0.004 A 
ATOM     25  C   UNL     1      -5.277  -3.367   0.654  0.00  0.00    +0.044 C 
ENDBRANCH  14  15
ENDBRANCH   7  11
TORSDOF 3
