REMARK  Name = 56775056
REMARK  4 active torsions:
REMARK  status: ('A' for Active; 'I' for Inactive)
REMARK    1  A    between atoms: N_4  and  C_11
REMARK    2  A    between atoms: N_5  and  C_14
REMARK    3  A    between atoms: C_11  and  C_15
REMARK    4  A    between atoms: C_14  and  C_16
REMARK                            x       y       z     vdW  Elec       q    Type
REMARK                         _______ _______ _______ _____ _____    ______ ____
ROOT
ATOM      2  O   UNL     1       0.531   2.451  -0.933  0.00  0.00    -0.364 OA
ATOM      3  O   UNL     1      -2.699   3.092   0.323  0.00  0.00    -0.273 OA
ATOM      4  N   UNL     1       1.966  -0.142   0.506  0.00  0.00    -0.292 NA
ATOM      5  N   UNL     1      -1.457   1.127   0.440  0.00  0.00    -0.288 N 
ATOM      7  C   UNL     1      -0.240   0.403   0.084  0.00  0.00    +0.120 C 
ATOM      8  C   UNL     1       0.579   1.031  -1.040  0.00  0.00    +0.154 C 
ATOM      9  C   UNL     1       0.779   0.329   1.218  0.00  0.00    +0.110 C 
ATOM     10  C   UNL     1       2.020   0.590  -0.766  0.00  0.00    +0.118 C 
ATOM     12  C   UNL     1      -1.733   2.410  -0.023  0.00  0.00    +0.242 C 
ATOM     13  C   UNL     1      -0.787   2.924  -1.087  0.00  0.00    +0.256 C 
ENDROOT
BRANCH   4  11
ATOM     11  C   UNL     1       3.183  -0.005   1.290  0.00  0.00    +0.140 C 
BRANCH  11  15
ATOM      6  N   UNL     1       5.216   0.452   0.041  0.00  0.00    -0.259 NA
ATOM     15  C   UNL     1       4.391  -0.493   0.543  0.00  0.00    +0.055 A 
ATOM     17  C   UNL     1       4.599  -1.856   0.407  0.00  0.00    +0.024 A 
ATOM     22  C   UNL     1       5.726  -2.276  -0.289  0.00  0.00    +0.003 A 
ATOM     23  C   UNL     1       6.302   0.007  -0.630  0.00  0.00    +0.111 A 
ATOM     25  C   UNL     1       6.600  -1.333  -0.821  0.00  0.00    +0.020 A 
ENDBRANCH  11  15
ENDBRANCH   4  11
BRANCH   5  14
ATOM     14  C   UNL     1      -2.352   0.489   1.397  0.00  0.00    +0.143 C 
BRANCH  14  16
ATOM      1  F   UNL     1      -6.306  -2.600  -1.158  0.00  0.00    -0.205 F 
ATOM     16  C   UNL     1      -3.406  -0.335   0.716  0.00  0.00    -0.030 A 
ATOM     18  C   UNL     1      -4.624   0.246   0.361  0.00  0.00    +0.008 A 
ATOM     19  C   UNL     1      -3.168  -1.681   0.437  0.00  0.00    +0.008 A 
ATOM     20  C   UNL     1      -5.604  -0.519  -0.271  0.00  0.00    +0.038 A 
ATOM     21  C   UNL     1      -4.148  -2.446  -0.196  0.00  0.00    +0.038 A 
ATOM     24  C   UNL     1      -5.366  -1.865  -0.550  0.00  0.00    +0.123 A 
ENDBRANCH  14  16
ENDBRANCH   5  14
TORSDOF 4
