REMARK  Name = 38028119
REMARK  9 active torsions:
REMARK  status: ('A' for Active; 'I' for Inactive)
REMARK    1  A    between atoms: N_4  and  C_14
REMARK    2  A    between atoms: N_6  and  C_25
REMARK    3  A    between atoms: C_7  and  C_11
REMARK    4  A    between atoms: C_8  and  C_14
REMARK    5  A    between atoms: C_10  and  C_15
REMARK    6  A    between atoms: C_11  and  C_16
REMARK    7  A    between atoms: C_11  and  C_17
REMARK    8  A    between atoms: C_12  and  C_18
REMARK    9  A    between atoms: C_15  and  C_19
REMARK                            x       y       z     vdW  Elec       q    Type
REMARK                         _______ _______ _______ _____ _____    ______ ____
ROOT
ATOM      7  C   UNL     1       1.461   2.051   0.780  0.00  0.00    +0.000 C 
ATOM      8  C   UNL     1       1.292   3.177  -0.272  0.00  0.00    +0.032 C 
ATOM      9  C   UNL     1       2.784   1.303   0.557  0.00  0.00    +0.012 C 
ATOM     10  C   UNL     1       2.869   0.676  -0.848  0.00  0.00    +0.023 C 
ATOM     12  C   UNL     1       2.455   1.655  -1.928  0.00  0.00    -0.073 C 
ATOM     13  C   UNL     1       1.763   2.774  -1.649  0.00  0.00    -0.022 C 
ATOM     18  C   UNL     1       2.896   1.342  -3.330  0.00  0.00    +0.039 C 
ENDROOT
BRANCH   7  11
ATOM     11  C   UNL     1       1.408   2.597   2.210  0.00  0.00    -0.013 C 
ATOM     16  C   UNL     1       0.977   1.502   3.181  0.00  0.00    +0.007 C 
ATOM     17  C   UNL     1       2.763   3.172   2.611  0.00  0.00    +0.007 C 
ENDBRANCH   7  11
BRANCH   8  14
ATOM     14  C   UNL     1      -0.164   3.650  -0.347  0.00  0.00    +0.113 C 
BRANCH  14   4
ATOM      3  O   UNL     1      -2.367   2.412   1.001  0.00  0.00    -0.253 OA
ATOM      4  N   UNL     1      -1.000   2.552  -0.855  0.00  0.00    -0.299 N 
ATOM      6  N   UNL     1      -2.657   0.999  -0.851  0.00  0.00    -0.269 N 
ATOM     22  C   UNL     1      -2.047   2.022  -0.120  0.00  0.00    +0.304 C 
ATOM     31  H   UNL     1      -0.848   2.224  -1.803  0.00  0.00    +0.150 HD
ATOM     32  H   UNL     1      -2.266   0.797  -1.768  0.00  0.00    +0.156 HD
BRANCH   6  25
ATOM     25  C   UNL     1      -3.759   0.198  -0.472  0.00  0.00    +0.035 A 
ATOM     26  C   UNL     1      -4.237  -0.785  -1.338  0.00  0.00    +0.023 A 
ATOM     27  C   UNL     1      -4.368   0.392   0.768  0.00  0.00    +0.023 A 
ATOM     28  C   UNL     1      -5.324  -1.575  -0.964  0.00  0.00    +0.002 A 
ATOM     29  C   UNL     1      -5.455  -0.398   1.142  0.00  0.00    +0.002 A 
ATOM     30  C   UNL     1      -5.933  -1.382   0.276  0.00  0.00    +0.000 A 
ENDBRANCH   6  25
ENDBRANCH  14   4
ENDBRANCH   8  14
BRANCH  10  15
ATOM     15  C   UNL     1       2.043  -0.612  -0.929  0.00  0.00    +0.103 C 
BRANCH  15  19
ATOM      1  O   UNL     1       3.848  -1.502   0.324  0.00  0.00    -0.276 OA
ATOM      2  O   UNL     1       0.595  -5.222   0.537  0.00  0.00    -0.377 OA
ATOM      5  N   UNL     1       2.118  -2.964  -0.187  0.00  0.00    -0.297 N 
ATOM     19  C   UNL     1       2.758  -1.726  -0.207  0.00  0.00    +0.216 C 
ATOM     20  C   UNL     1       0.888  -3.299  -0.913  0.00  0.00    +0.136 C 
ATOM     21  C   UNL     1       2.740  -4.099   0.495  0.00  0.00    +0.136 C 
ATOM     23  C   UNL     1      -0.062  -4.076  -0.011  0.00  0.00    +0.179 C 
ATOM     24  C   UNL     1       1.713  -4.837   1.341  0.00  0.00    +0.179 C 
ENDBRANCH  15  19
ENDBRANCH  10  15
TORSDOF 6
