REMARK  Name = 38026621
REMARK  12 active torsions:
REMARK  status: ('A' for Active; 'I' for Inactive)
REMARK    1  A    between atoms: O_5  and  C_13
REMARK    2  A    between atoms: O_6  and  C_16
REMARK    3  A    between atoms: N_8  and  C_11
REMARK    4  A    between atoms: N_8  and  C_17
REMARK    5  A    between atoms: N_8  and  C_18
REMARK    6  A    between atoms: N_9  and  C_15
REMARK    7  A    between atoms: C_12  and  C_15
REMARK    8  A    between atoms: C_14  and  C_16
REMARK    9  A    between atoms: C_17  and  C_19
REMARK   10  A    between atoms: C_19  and  C_20
REMARK   11  A    between atoms: C_21  and  C_22
REMARK   12  A    between atoms: C_31  and  C_32
REMARK                            x       y       z     vdW  Elec       q    Type
REMARK                         _______ _______ _______ _____ _____    ______ ____
ROOT
ATOM      4  O   UNL     1      -0.338   2.854   0.762  0.00  0.00    -0.365 OA
ATOM     11  C   UNL     1      -2.567   2.097   0.407  0.00  0.00    +0.118 C 
ATOM     12  C   UNL     1      -1.093   1.672   0.415  0.00  0.00    +0.155 C 
ATOM     13  C   UNL     1      -2.493   3.586   0.110  0.00  0.00    +0.165 C 
ATOM     14  C   UNL     1      -1.243   3.968   0.894  0.00  0.00    +0.174 C 
ENDROOT
BRANCH  13   5
ATOM      5  O   UNL     1      -2.301   3.831  -1.278  0.00  0.00    -0.388 OA
ATOM     33  H   UNL     1      -2.368   4.791  -1.419  0.00  0.00    +0.210 HD
ENDBRANCH  13   5
BRANCH  11   8
ATOM      8  N   UNL     1      -3.450   1.335  -0.459  0.00  0.00    -0.297 NA
ATOM     18  C   UNL     1      -4.680   2.082  -0.737  0.00  0.00    +0.105 C 
BRANCH   8  17
ATOM     17  C   UNL     1      -3.776   0.036   0.140  0.00  0.00    +0.090 C 
BRANCH  17  19
ATOM     19  C   UNL     1      -4.313  -0.933  -0.913  0.00  0.00    +0.071 C 
BRANCH  19  20
ATOM     10  N   UNL     1      -5.940  -2.404   0.145  0.00  0.00    -0.260 NA
ATOM     20  C   UNL     1      -4.673  -2.266  -0.306  0.00  0.00    +0.042 A 
ATOM     23  C   UNL     1      -3.713  -3.263  -0.241  0.00  0.00    +0.023 A 
ATOM     26  C   UNL     1      -4.077  -4.480   0.323  0.00  0.00    +0.003 A 
ATOM     27  C   UNL     1      -6.257  -3.601   0.687  0.00  0.00    +0.111 A 
ATOM     28  C   UNL     1      -5.371  -4.661   0.798  0.00  0.00    +0.020 A 
ENDBRANCH  19  20
ENDBRANCH  17  19
ENDBRANCH   8  17
ENDBRANCH  11   8
BRANCH  12  15
ATOM     15  C   UNL     1      -0.526   1.144  -0.899  0.00  0.00    +0.137 C 
BRANCH  15   9
ATOM      7  O   UNL     1       0.513  -1.422  -0.137  0.00  0.00    -0.270 OA
ATOM      9  N   UNL     1       0.854   0.787  -0.759  0.00  0.00    -0.309 N 
ATOM     21  C   UNL     1       1.271  -0.487  -0.383  0.00  0.00    +0.244 C 
ATOM     34  H   UNL     1       1.530   1.534  -0.880  0.00  0.00    +0.149 HD
BRANCH  21  22
ATOM     22  C   UNL     1       2.737  -0.689  -0.257  0.00  0.00    +0.037 A 
ATOM     24  C   UNL     1       3.236  -1.663   0.609  0.00  0.00    +0.013 A 
ATOM     25  C   UNL     1       3.615   0.095  -1.005  0.00  0.00    +0.013 A 
ATOM     29  C   UNL     1       4.613  -1.851   0.727  0.00  0.00    +0.013 A 
ATOM     30  C   UNL     1       4.992  -0.094  -0.887  0.00  0.00    +0.013 A 
ATOM     31  C   UNL     1       5.491  -1.067  -0.021  0.00  0.00    +0.055 A 
BRANCH  31  32
ATOM      1  F   UNL     1       7.571  -1.619  -1.067  0.00  0.00    -0.166 F 
ATOM      2  F   UNL     1       7.283  -2.257   0.992  0.00  0.00    -0.166 F 
ATOM      3  F   UNL     1       7.633  -0.160   0.537  0.00  0.00    -0.166 F 
ATOM     32  C   UNL     1       6.963  -1.270   0.106  0.00  0.00    +0.417 C 
ENDBRANCH  31  32
ENDBRANCH  21  22
ENDBRANCH  15   9
ENDBRANCH  12  15
BRANCH  14  16
ATOM     16  C   UNL     1      -0.546   5.236   0.436  0.00  0.00    +0.190 C 
BRANCH  16   6
ATOM      6  O   UNL     1       0.584   5.463   1.262  0.00  0.00    -0.392 OA
ATOM     35  H   UNL     1       1.008   6.280   0.950  0.00  0.00    +0.210 HD
ENDBRANCH  16   6
ENDBRANCH  14  16
TORSDOF 11
