REMARK  Name = 45784034
REMARK  15 active torsions:
REMARK  status: ('A' for Active; 'I' for Inactive)
REMARK    1  A    between atoms: O_2  and  C_25
REMARK    2  A    between atoms: O_2  and  C_29
REMARK    3  A    between atoms: N_3  and  C_12
REMARK    4  A    between atoms: N_4  and  C_24
REMARK    5  A    between atoms: C_7  and  C_11
REMARK    6  A    between atoms: C_8  and  C_12
REMARK    7  A    between atoms: C_10  and  C_15
REMARK    8  A    between atoms: C_11  and  C_18
REMARK    9  A    between atoms: C_11  and  C_19
REMARK   10  A    between atoms: C_14  and  C_22
REMARK   11  A    between atoms: C_15  and  C_23
REMARK   12  A    between atoms: C_24  and  C_25
REMARK   13  A    between atoms: C_26  and  C_27
REMARK   14  A    between atoms: C_27  and  C_28
REMARK   15  A    between atoms: C_28  and  C_30
REMARK                            x       y       z     vdW  Elec       q    Type
REMARK                         _______ _______ _______ _____ _____    ______ ____
ROOT
ATOM      7  C   UNL     1       0.667  -1.954  -0.707  0.00  0.00    +0.000 C 
ATOM      8  C   UNL     1       0.442  -1.809   0.816  0.00  0.00    +0.029 C 
ATOM      9  C   UNL     1       1.931  -1.198  -1.139  0.00  0.00    +0.012 C 
ATOM     10  C   UNL     1       3.201  -1.651  -0.388  0.00  0.00    +0.024 C 
ATOM     13  C   UNL     1       1.713  -1.984   1.608  0.00  0.00    -0.023 C 
ATOM     14  C   UNL     1       2.953  -1.929   1.087  0.00  0.00    -0.073 C 
ATOM     22  C   UNL     1       4.151  -2.204   1.954  0.00  0.00    +0.039 C 
ENDROOT
BRANCH   7  11
ATOM     11  C   UNL     1       0.733  -3.430  -1.125  0.00  0.00    -0.013 C 
ATOM     18  C   UNL     1      -0.662  -4.048  -1.115  0.00  0.00    +0.007 C 
ATOM     19  C   UNL     1       1.375  -3.565  -2.502  0.00  0.00    +0.007 C 
ENDBRANCH   7  11
BRANCH   8  12
ATOM     12  C   UNL     1      -0.189  -0.458   1.168  0.00  0.00    +0.092 C 
BRANCH  12   3
ATOM      3  N   UNL     1      -1.439  -0.265   0.435  0.00  0.00    -0.299 NA
ATOM      4  N   UNL     1      -4.179   0.627   0.208  0.00  0.00    -0.298 NA
ATOM     16  C   UNL     1      -2.536  -1.004   1.071  0.00  0.00    +0.100 C 
ATOM     17  C   UNL     1      -1.771   1.161   0.336  0.00  0.00    +0.100 C 
ATOM     20  C   UNL     1      -3.848  -0.800   0.306  0.00  0.00    +0.100 C 
ATOM     21  C   UNL     1      -3.083   1.365  -0.430  0.00  0.00    +0.100 C 
BRANCH   4  24
ATOM     24  C   UNL     1      -5.430   0.820  -0.523  0.00  0.00    +0.112 C 
BRANCH  24  25
ATOM     25  C   UNL     1      -6.625   0.605   0.391  0.00  0.00    +0.174 C 
BRANCH  25   2
ATOM      2  O   UNL     1      -7.816   0.820  -0.356  0.00  0.00    -0.382 OA
ATOM     29  C   UNL     1      -8.975   0.613   0.440  0.00  0.00    +0.194 C 
ENDBRANCH  25   2
ENDBRANCH  24  25
ENDBRANCH   4  24
ENDBRANCH  12   3
ENDBRANCH   8  12
BRANCH  10  15
ATOM     15  C   UNL     1       4.305  -0.612  -0.621  0.00  0.00    +0.105 C 
BRANCH  15  23
ATOM      1  O   UNL     1       3.896   1.786  -0.817  0.00  0.00    -0.425 OA
ATOM      5  N   UNL     1       3.702   0.991   1.265  0.00  0.00    -0.112 NA
ATOM      6  N   UNL     1       3.446   2.349   1.301  0.00  0.00    -0.112 NA
ATOM     23  C   UNL     1       3.960   0.706   0.010  0.00  0.00    +0.218 A 
ATOM     26  C   UNL     1       3.571   2.771   0.064  0.00  0.00    +0.217 A 
BRANCH  26  27
ATOM     27  C   UNL     1       3.408   4.123  -0.484  0.00  0.00    +0.097 C 
BRANCH  27  28
ATOM     28  C   UNL     1       1.929   4.537  -0.644  0.00  0.00    +0.006 C 
ATOM     30  C   UNL     1       1.169   3.640  -1.608  0.00  0.00    +0.004 C 
ENDBRANCH  27  28
ENDBRANCH  26  27
ENDBRANCH  15  23
ENDBRANCH  10  15
TORSDOF 10
