REMARK  Name = 40777125
REMARK  9 active torsions:
REMARK  status: ('A' for Active; 'I' for Inactive)
REMARK    1  A    between atoms: S_2  and  N_6
REMARK    2  A    between atoms: S_2  and  C_21
REMARK    3  A    between atoms: N_6  and  C_16
REMARK    4  A    between atoms: C_10  and  C_17
REMARK    5  A    between atoms: C_11  and  C_16
REMARK    6  A    between atoms: C_19  and  C_22
REMARK    7  A    between atoms: C_20  and  C_24
REMARK    8  A    between atoms: C_21  and  C_23
REMARK    9  A    between atoms: C_23  and  C_25
REMARK                            x       y       z     vdW  Elec       q    Type
REMARK                         _______ _______ _______ _____ _____    ______ ____
ROOT
ATOM      5  N   UNL     1       1.926   2.233   1.909  0.00  0.00    -0.297 NA
ATOM      9  C   UNL     1       1.013   3.208  -0.327  0.00  0.00    +0.002 C 
ATOM     10  C   UNL     1      -0.117   2.476   0.449  0.00  0.00    +0.055 C 
ATOM     11  C   UNL     1       2.813   1.839   0.783  0.00  0.00    +0.072 C 
ATOM     12  C   UNL     1       2.181   2.229  -0.571  0.00  0.00    +0.024 C 
ATOM     13  C   UNL     1       1.541   4.322   0.602  0.00  0.00    +0.019 C 
ATOM     14  C   UNL     1       0.543   1.755   1.659  0.00  0.00    +0.094 C 
ATOM     15  C   UNL     1       1.900   3.715   1.969  0.00  0.00    +0.085 C 
ENDROOT
BRANCH  10  17
ATOM      7  N   UNL     1      -0.810   1.439  -1.655  0.00  0.00    -0.237 NA
ATOM      8  N   UNL     1      -2.685  -0.070  -1.786  0.00  0.00    -0.232 NA
ATOM     17  C   UNL     1      -1.047   1.559  -0.332  0.00  0.00    +0.050 A 
ATOM     18  C   UNL     1      -2.069   0.906   0.326  0.00  0.00    +0.052 A 
ATOM     19  C   UNL     1      -2.864   0.096  -0.459  0.00  0.00    +0.076 A 
ATOM     20  C   UNL     1      -1.655   0.621  -2.311  0.00  0.00    +0.127 A 
ATOM     24  C   UNL     1      -1.426   0.464  -3.776  0.00  0.00    +0.088 C 
BRANCH  19  22
ATOM      1 BR   UNL     1      -2.141  -2.835   0.597  0.00  0.00    -0.050 Br
ATOM     22  C   UNL     1      -3.968  -0.641   0.108  0.00  0.00    +0.014 A 
ATOM     26  C   UNL     1      -3.814  -1.932   0.613  0.00  0.00    +0.027 A 
ATOM     27  C   UNL     1      -5.218  -0.023   0.143  0.00  0.00    +0.011 A 
ATOM     28  C   UNL     1      -4.910  -2.606   1.152  0.00  0.00    +0.016 A 
ATOM     29  C   UNL     1      -6.314  -0.696   0.682  0.00  0.00    +0.001 A 
ATOM     30  C   UNL     1      -6.160  -1.988   1.187  0.00  0.00    +0.001 A 
ENDBRANCH  19  22
ENDBRANCH  10  17
BRANCH  11  16
ATOM     16  C   UNL     1       3.191   0.357   0.830  0.00  0.00    +0.124 C 
BRANCH  16   6
ATOM      6  N   UNL     1       4.134   0.038  -0.197  0.00  0.00    -0.193 NA
ATOM     31  H   UNL     1       5.047   0.500  -0.094  0.00  0.00    +0.148 HD
BRANCH   6   2
ATOM      2  S   UNL     1       4.182  -1.549  -0.882  0.00  0.00    +0.029 S 
ATOM      3  O   UNL     1       5.384  -1.681  -1.682  0.00  0.00    -0.158 OA
ATOM      4  O   UNL     1       2.883  -1.883  -1.434  0.00  0.00    -0.158 OA
BRANCH   2  21
ATOM     21  C   UNL     1       4.397  -2.518   0.593  0.00  0.00    +0.185 C 
BRANCH  21  23
ATOM     23  C   UNL     1       4.473  -4.002   0.274  0.00  0.00    +0.021 C 
ATOM     25  C   UNL     1       4.638  -4.834   1.535  0.00  0.00    +0.005 C 
ENDBRANCH  21  23
ENDBRANCH   2  21
ENDBRANCH   6   2
ENDBRANCH  16   6
ENDBRANCH  11  16
TORSDOF 7
