REMARK  Name = 11883294
REMARK  6 active torsions:
REMARK  status: ('A' for Active; 'I' for Inactive)
REMARK    1  A    between atoms: S_2  and  N_9
REMARK    2  A    between atoms: S_2  and  C_18
REMARK    3  A    between atoms: O_5  and  C_14
REMARK    4  A    between atoms: O_5  and  C_17
REMARK    5  A    between atoms: N_9  and  C_13
REMARK    6  A    between atoms: C_17  and  C_19
REMARK                            x       y       z     vdW  Elec       q    Type
REMARK                         _______ _______ _______ _____ _____    ______ ____
ROOT
ATOM      3  O   UNL     1       1.973   1.537  -0.292  0.00  0.00    -0.370 OA
ATOM      4  O   UNL     1       0.266  -0.489  -1.836  0.00  0.00    -0.370 OA
ATOM     11  C   UNL     1       0.066   0.154  -0.560  0.00  0.00    +0.170 C 
ATOM     12  C   UNL     1       1.428   0.265   0.095  0.00  0.00    +0.179 C 
ATOM     13  C   UNL     1      -0.356   1.591  -0.763  0.00  0.00    +0.133 C 
ATOM     14  C   UNL     1       2.185  -0.882  -0.531  0.00  0.00    +0.176 C 
ATOM     15  C   UNL     1       0.973   2.287  -0.999  0.00  0.00    +0.183 C 
ATOM     16  C   UNL     1       1.639  -0.893  -1.941  0.00  0.00    +0.194 C 
ENDROOT
BRANCH  13   9
ATOM      9  N   UNL     1      -1.021   2.111   0.406  0.00  0.00    -0.182 NA
ATOM     25  H   UNL     1      -0.478   2.145   1.278  0.00  0.00    +0.148 HD
BRANCH   9   2
ATOM      2  S   UNL     1      -2.716   2.072   0.503  0.00  0.00    +0.059 S 
ATOM      6  O   UNL     1      -3.282   2.716  -0.666  0.00  0.00    -0.153 OA
ATOM      7  O   UNL     1      -3.118   2.489   1.833  0.00  0.00    -0.153 OA
BRANCH   2  18
ATOM      1 CL   UNL     1      -3.883  -4.061   0.084  0.00  0.00    -0.084 Cl
ATOM     18  C   UNL     1      -3.047   0.339   0.385  0.00  0.00    +0.105 A 
ATOM     20  C   UNL     1      -3.103  -0.418   1.542  0.00  0.00    +0.030 A 
ATOM     21  C   UNL     1      -3.244  -0.227  -0.862  0.00  0.00    +0.030 A 
ATOM     22  C   UNL     1      -3.363  -1.786   1.448  0.00  0.00    +0.022 A 
ATOM     23  C   UNL     1      -3.503  -1.595  -0.956  0.00  0.00    +0.022 A 
ATOM     24  C   UNL     1      -3.563  -2.374   0.199  0.00  0.00    +0.041 A 
ENDBRANCH   2  18
ENDBRANCH   9   2
ENDBRANCH  13   9
BRANCH  14   5
ATOM      5  O   UNL     1       3.584  -0.713  -0.505  0.00  0.00    -0.362 OA
BRANCH   5  17
ATOM     17  C   UNL     1       4.096  -0.703   0.826  0.00  0.00    +0.255 C 
BRANCH  17  19
ATOM      8  O   UNL     1       6.241  -0.405  -0.249  0.00  0.00    -0.274 OA
ATOM     10  N   UNL     1       6.152  -0.496   2.049  0.00  0.00    -0.327 N 
ATOM     19  C   UNL     1       5.595  -0.520   0.789  0.00  0.00    +0.236 C 
ATOM     26  H   UNL     1       5.593  -0.594   2.891  0.00  0.00    +0.145 HD
ATOM     27  H   UNL     1       7.151  -0.379   2.176  0.00  0.00    +0.145 HD
ENDBRANCH  17  19
ENDBRANCH   5  17
ENDBRANCH  14   5
TORSDOF 6
