REMARK  Name = 11941656
REMARK  7 active torsions:
REMARK  status: ('A' for Active; 'I' for Inactive)
REMARK    1  A    between atoms: O_4  and  C_29
REMARK    2  A    between atoms: O_4  and  C_30
REMARK    3  A    between atoms: N_5  and  C_12
REMARK    4  A    between atoms: N_6  and  C_13
REMARK    5  A    between atoms: N_7  and  C_19
REMARK    6  A    between atoms: C_18  and  C_22
REMARK    7  A    between atoms: C_19  and  C_23
REMARK                            x       y       z     vdW  Elec       q    Type
REMARK                         _______ _______ _______ _____ _____    ______ ____
ROOT
ATOM      1  O   UNL     1       2.599  -2.251   1.874  0.00  0.00    -0.370 OA
ATOM      2  O   UNL     1       0.910   0.361   2.124  0.00  0.00    -0.370 OA
ATOM     10  C   UNL     1       1.068  -0.612   1.078  0.00  0.00    +0.171 C 
ATOM     11  C   UNL     1       2.519  -1.051   1.087  0.00  0.00    +0.171 C 
ATOM     12  C   UNL     1       0.300  -1.869   1.413  0.00  0.00    +0.130 C 
ATOM     13  C   UNL     1       3.242   0.082   1.780  0.00  0.00    +0.131 C 
ATOM     14  C   UNL     1       1.279  -2.635   2.285  0.00  0.00    +0.185 C 
ATOM     15  C   UNL     1       2.185   0.603   2.738  0.00  0.00    +0.185 C 
ENDROOT
BRANCH  12   5
ATOM      5  N   UNL     1       0.019  -2.614   0.205  0.00  0.00    -0.306 N 
ATOM      8  N   UNL     1      -1.899  -1.375  -0.224  0.00  0.00    -0.214 NA
ATOM      9  N   UNL     1      -1.197  -3.145  -1.701  0.00  0.00    -0.223 NA
ATOM     16  C   UNL     1      -1.073  -2.367  -0.609  0.00  0.00    +0.216 A 
ATOM     18  C   UNL     1      -2.952  -1.163  -1.039  0.00  0.00    +0.076 A 
ATOM     20  C   UNL     1      -2.272  -2.878  -2.471  0.00  0.00    +0.116 A 
ATOM     21  C   UNL     1      -3.192  -1.889  -2.187  0.00  0.00    +0.048 A 
ATOM     31  H   UNL     1       0.672  -3.323  -0.107  0.00  0.00    +0.149 HD
BRANCH  18  22
ATOM     22  C   UNL     1      -3.839  -0.100  -0.630  0.00  0.00    +0.001 A 
ATOM     24  C   UNL     1      -5.180  -0.375  -0.365  0.00  0.00    +0.013 A 
ATOM     25  C   UNL     1      -3.356   1.203  -0.502  0.00  0.00    +0.013 A 
ATOM     26  C   UNL     1      -6.038   0.652   0.029  0.00  0.00    +0.046 A 
ATOM     27  C   UNL     1      -4.214   2.229  -0.108  0.00  0.00    +0.046 A 
ATOM     29  C   UNL     1      -5.555   1.954   0.158  0.00  0.00    +0.120 A 
BRANCH  29   4
ATOM      4  O   UNL     1      -6.392   2.955   0.544  0.00  0.00    -0.495 OA
ATOM     30  C   UNL     1      -5.833   4.263   0.655  0.00  0.00    +0.277 C 
ENDBRANCH  29   4
ENDBRANCH  18  22
ENDBRANCH  12   5
BRANCH  13   6
ATOM      3  O   UNL     1       5.803   0.331   0.474  0.00  0.00    -0.253 OA
ATOM      6  N   UNL     1       3.643   1.100   0.839  0.00  0.00    -0.292 N 
ATOM      7  N   UNL     1       5.025   2.228  -0.613  0.00  0.00    -0.296 N 
ATOM     17  C   UNL     1       4.907   1.144   0.254  0.00  0.00    +0.300 C 
ATOM     32  H   UNL     1       2.951   1.781   0.539  0.00  0.00    +0.151 HD
ATOM     33  H   UNL     1       4.223   2.836  -0.747  0.00  0.00    +0.151 HD
BRANCH   7  19
ATOM     19  C   UNL     1       6.233   2.509  -1.352  0.00  0.00    +0.132 C 
BRANCH  19  23
ATOM     23  C   UNL     1       6.177   1.803  -2.666  0.00  0.00    -0.016 C 
ATOM     28  C   UNL     1       7.084   0.907  -3.071  0.00  0.00    +0.005 C 
ENDBRANCH  19  23
ENDBRANCH   7  19
ENDBRANCH  13   6
TORSDOF 6
