REMARK  Name = 11912243
REMARK  8 active torsions:
REMARK  status: ('A' for Active; 'I' for Inactive)
REMARK    1  A    between atoms: S_1  and  C_24
REMARK    2  A    between atoms: S_1  and  C_26
REMARK    3  A    between atoms: O_6  and  C_27
REMARK    4  A    between atoms: N_10  and  C_16
REMARK    5  A    between atoms: C_12  and  C_17
REMARK    6  A    between atoms: C_22  and  C_25
REMARK    7  A    between atoms: C_23  and  C_24
REMARK    8  A    between atoms: C_26  and  C_27
REMARK                            x       y       z     vdW  Elec       q    Type
REMARK                         _______ _______ _______ _____ _____    ______ ____
ROOT
ATOM      4  O   UNL     1      -3.856   1.980  -1.413  0.00  0.00    -0.276 OA
ATOM      5  O   UNL     1       2.780   2.566   1.675  0.00  0.00    -0.275 OA
ATOM      8  N   UNL     1      -1.864   2.616  -0.391  0.00  0.00    -0.287 N 
ATOM      9  N   UNL     1       0.939   2.180   0.310  0.00  0.00    -0.297 N 
ATOM     12  C   UNL     1      -1.174   1.387  -0.789  0.00  0.00    +0.179 C 
ATOM     13  C   UNL     1       0.344   1.543  -0.872  0.00  0.00    +0.139 C 
ATOM     14  C   UNL     1      -1.075   3.625   0.324  0.00  0.00    +0.127 C 
ATOM     15  C   UNL     1       0.064   3.016   1.129  0.00  0.00    +0.127 C 
ATOM     22  C   UNL     1      -3.183   2.821  -0.811  0.00  0.00    +0.213 C 
ATOM     23  C   UNL     1       2.276   2.032   0.684  0.00  0.00    +0.226 C 
ATOM     25  C   UNL     1      -3.790   4.163  -0.484  0.00  0.00    +0.109 C 
ENDROOT
BRANCH  12  17
ATOM      2  O   UNL     1      -1.815   0.593   1.372  0.00  0.00    -0.274 OA
ATOM     10  N   UNL     1      -1.587  -0.937  -0.367  0.00  0.00    -0.302 N 
ATOM     17  C   UNL     1      -1.567   0.326   0.199  0.00  0.00    +0.236 C 
ATOM     28  H   UNL     1      -1.375  -1.038  -1.356  0.00  0.00    +0.150 HD
BRANCH  10  16
ATOM      3  O   UNL     1       0.101  -3.077  -0.562  0.00  0.00    -0.274 OA
ATOM     11  N   UNL     1      -1.591  -4.532  -0.073  0.00  0.00    -0.314 N 
ATOM     16  C   UNL     1      -1.911  -2.128   0.374  0.00  0.00    +0.159 C 
ATOM     18  C   UNL     1      -3.408  -2.401   0.335  0.00  0.00    +0.033 C 
ATOM     19  C   UNL     1      -3.697  -3.750   0.972  0.00  0.00    +0.021 C 
ATOM     20  C   UNL     1      -2.987  -4.834   0.183  0.00  0.00    +0.104 C 
ATOM     21  C   UNL     1      -1.051  -3.265  -0.165  0.00  0.00    +0.233 C 
ATOM     29  H   UNL     1      -1.004  -5.303  -0.376  0.00  0.00    +0.149 HD
ENDBRANCH  10  16
ENDBRANCH  12  17
BRANCH  23  24
ATOM     24  C   UNL     1       3.125   1.151  -0.200  0.00  0.00    +0.165 C 
BRANCH  24   1
ATOM      1  S   UNL     1       3.022  -0.527   0.439  0.00  0.00    -0.140 S 
BRANCH   1  26
ATOM     26  C   UNL     1       4.095  -1.350  -0.765  0.00  0.00    +0.189 C 
BRANCH  26  27
ATOM      7  O   UNL     1       5.924  -0.961   0.756  0.00  0.00    -0.250 OA
ATOM     27  C   UNL     1       5.531  -1.119  -0.393  0.00  0.00    +0.315 C 
BRANCH  27   6
ATOM      6  O   UNL     1       6.358  -1.118  -1.469  0.00  0.00    -0.480 OA
ATOM     30  H   UNL     1       7.293  -0.973  -1.212  0.00  0.00    +0.295 HD
ENDBRANCH  27   6
ENDBRANCH  26  27
ENDBRANCH   1  26
ENDBRANCH  24   1
ENDBRANCH  23  24
TORSDOF 7
