REMARK  Name = 26742832
REMARK  3 active torsions:
REMARK  status: ('A' for Active; 'I' for Inactive)
REMARK    1  A    between atoms: N_6  and  C_21
REMARK    2  A    between atoms: N_7  and  C_18
REMARK    3  A    between atoms: C_21  and  C_25
REMARK                            x       y       z     vdW  Elec       q    Type
REMARK                         _______ _______ _______ _____ _____    ______ ____
ROOT
ATOM      1  O   UNL     1       2.770   2.711  -0.532  0.00  0.00    -0.276 OA
ATOM      2  O   UNL     1      -4.984   1.708   1.703  0.00  0.00    -0.253 OA
ATOM      5  N   UNL     1      -2.958   1.221   0.676  0.00  0.00    -0.285 N 
ATOM      6  N   UNL     1       1.994   0.594  -1.085  0.00  0.00    -0.297 N 
ATOM      7  N   UNL     1      -4.726  -0.352   0.729  0.00  0.00    -0.296 N 
ATOM      8  C   UNL     1      -1.246   0.913  -1.122  0.00  0.00    +0.011 C 
ATOM      9  C   UNL     1      -0.595   2.261  -0.743  0.00  0.00    +0.004 C 
ATOM     10  C   UNL     1      -1.688   3.177  -0.164  0.00  0.00    +0.023 C 
ATOM     11  C   UNL     1      -2.009   0.277   0.059  0.00  0.00    +0.113 C 
ATOM     12  C   UNL     1      -0.283  -0.087  -1.787  0.00  0.00    +0.024 C 
ATOM     13  C   UNL     1       0.589   2.140   0.232  0.00  0.00    +0.100 C 
ATOM     14  C   UNL     1      -2.408   2.536   1.017  0.00  0.00    +0.109 C 
ATOM     15  C   UNL     1       0.961  -0.436  -0.977  0.00  0.00    +0.108 C 
ATOM     16  C   UNL     1       1.890   1.848  -0.491  0.00  0.00    +0.216 C 
ATOM     17  C   UNL     1      -4.273   0.915   1.077  0.00  0.00    +0.302 C 
ATOM     32  H   UNL     1      -4.203  -0.932   0.089  0.00  0.00    +0.151 HD
ENDROOT
BRANCH   7  18
ATOM     18  C   UNL     1      -6.050  -0.819   1.076  0.00  0.00    +0.074 C 
ATOM     19  C   UNL     1      -7.070  -0.430   0.001  0.00  0.00    +0.022 C 
ATOM     20  C   UNL     1      -6.053  -2.332   1.324  0.00  0.00    +0.022 C 
ATOM     22  C   UNL     1      -6.901  -1.238  -1.286  0.00  0.00    +0.002 C 
ATOM     23  C   UNL     1      -5.885  -3.136   0.035  0.00  0.00    +0.002 C 
ATOM     24  C   UNL     1      -6.919  -2.739  -1.015  0.00  0.00    +0.000 C 
ENDBRANCH   7  18
BRANCH   6  21
ATOM     21  C   UNL     1       3.175   0.254  -1.867  0.00  0.00    +0.143 C 
BRANCH  21  25
ATOM      3  O   UNL     1       6.799   0.270   1.498  0.00  0.00    -0.453 OA
ATOM      4  O   UNL     1       7.143  -2.108   1.311  0.00  0.00    -0.453 OA
ATOM     25  C   UNL     1       4.230  -0.412  -1.032  0.00  0.00    -0.026 A 
ATOM     26  C   UNL     1       5.002   0.351  -0.153  0.00  0.00    +0.054 A 
ATOM     27  C   UNL     1       4.431  -1.799  -1.141  0.00  0.00    +0.009 A 
ATOM     28  C   UNL     1       5.958  -0.305   0.595  0.00  0.00    +0.167 A 
ATOM     29  C   UNL     1       5.406  -2.439  -0.372  0.00  0.00    +0.050 A 
ATOM     30  C   UNL     1       6.154  -1.663   0.489  0.00  0.00    +0.166 A 
ATOM     31  C   UNL     1       7.546  -0.879   1.948  0.00  0.00    +0.466 C 
ENDBRANCH  21  25
ENDBRANCH   6  21
TORSDOF 3
