REMARK  Name = 7134270
REMARK  10 active torsions:
REMARK  status: ('A' for Active; 'I' for Inactive)
REMARK    1  A    between atoms: N_9  and  C_15
REMARK    2  A    between atoms: N_10  and  C_22
REMARK    3  A    between atoms: C_16  and  C_20
REMARK    4  A    between atoms: C_21  and  C_24
REMARK    5  A    between atoms: C_22  and  C_25
REMARK    6  A    between atoms: C_22  and  C_27
REMARK    7  A    between atoms: C_23  and  C_26
REMARK    8  A    between atoms: C_25  and  C_29
REMARK    9  A    between atoms: C_30  and  C_33
REMARK   10  A    between atoms: C_31  and  C_34
REMARK                            x       y       z     vdW  Elec       q    Type
REMARK                         _______ _______ _______ _____ _____    ______ ____
ROOT
ATOM      5  O   UNL     1      -1.377   3.808   1.140  0.00  0.00    -0.268 OA
ATOM      8  N   UNL     1      -1.767   1.768   0.103  0.00  0.00    -0.285 N 
ATOM     15  C   UNL     1      -1.375  -1.103  -0.303  0.00  0.00    +0.077 C 
ATOM     16  C   UNL     1      -0.665   1.089   0.797  0.00  0.00    +0.164 C 
ATOM     17  C   UNL     1      -0.877  -0.414   0.970  0.00  0.00    +0.054 C 
ATOM     18  C   UNL     1      -2.606  -0.377  -0.840  0.00  0.00    +0.041 C 
ATOM     19  C   UNL     1      -2.314   1.098  -1.090  0.00  0.00    +0.111 C 
ATOM     21  C   UNL     1      -2.147   3.061   0.533  0.00  0.00    +0.266 C 
ENDROOT
BRANCH  21  24
ATOM      1  S   UNL     1      -5.535   4.918  -0.297  0.00  0.00    -0.080 S 
ATOM     11  N   UNL     1      -4.527   2.578   0.143  0.00  0.00    -0.240 NA
ATOM     24  C   UNL     1      -3.505   3.500   0.233  0.00  0.00    +0.133 A 
ATOM     28  C   UNL     1      -3.854   4.816   0.026  0.00  0.00    +0.080 A 
ATOM     31  C   UNL     1      -5.645   3.213  -0.133  0.00  0.00    +0.076 A 
ATOM     34  C   UNL     1      -6.959   2.557  -0.305  0.00  0.00    +0.073 C 
ENDBRANCH  21  24
BRANCH  16  20
ATOM      4  O   UNL     1       0.552   2.057  -1.016  0.00  0.00    -0.274 OA
ATOM     10  N   UNL     1       1.712   0.854   0.605  0.00  0.00    -0.302 N 
ATOM     20  C   UNL     1       0.582   1.402   0.023  0.00  0.00    +0.234 C 
ATOM     38  H   UNL     1       1.628   0.338   1.476  0.00  0.00    +0.150 HD
BRANCH  10  22
ATOM     22  C   UNL     1       3.036   0.991   0.043  0.00  0.00    +0.163 C 
BRANCH  22  27
ATOM      7  O   UNL     1       2.739  -1.264  -0.813  0.00  0.00    -0.274 OA
ATOM     12  N   UNL     1       3.928   0.242  -2.075  0.00  0.00    -0.328 N 
ATOM     27  C   UNL     1       3.215  -0.141  -0.958  0.00  0.00    +0.231 C 
ATOM     39  H   UNL     1       4.307   1.177  -2.188  0.00  0.00    +0.145 HD
ATOM     40  H   UNL     1       4.107  -0.414  -2.828  0.00  0.00    +0.145 HD
ENDBRANCH  22  27
BRANCH  22  25
ATOM     25  C   UNL     1       4.131   0.935   1.115  0.00  0.00    +0.074 C 
BRANCH  25  29
ATOM      3  S   UNL     1       6.835   0.609   0.671  0.00  0.00    -0.102 S 
ATOM     29  C   UNL     1       5.426   1.555   0.645  0.00  0.00    -0.008 A 
ATOM     32  C   UNL     1       5.619   2.819   0.188  0.00  0.00    +0.011 A 
ATOM     35  C   UNL     1       6.983   3.034  -0.161  0.00  0.00    +0.008 A 
ATOM     36  C   UNL     1       7.755   1.914   0.052  0.00  0.00    +0.045 A 
ENDBRANCH  25  29
ENDBRANCH  22  25
ENDBRANCH  10  22
ENDBRANCH  16  20
BRANCH  15   9
ATOM      6  O   UNL     1       0.452  -3.309  -0.506  0.00  0.00    -0.270 OA
ATOM      9  N   UNL     1      -1.670  -2.494  -0.049  0.00  0.00    -0.308 N 
ATOM     23  C   UNL     1      -0.716  -3.493  -0.174  0.00  0.00    +0.254 C 
ATOM     37  H   UNL     1      -2.603  -2.738   0.271  0.00  0.00    +0.149 HD
BRANCH  23  26
ATOM      2  S   UNL     1      -2.794  -5.133   0.522  0.00  0.00    +0.041 S 
ATOM     13  N   UNL     1      -1.295  -7.135   0.375  0.00  0.00    -0.146 NA
ATOM     14  N   UNL     1      -2.542  -6.784   0.645  0.00  0.00    -0.110 NA
ATOM     26  C   UNL     1      -1.185  -4.876   0.096  0.00  0.00    +0.117 A 
ATOM     30  C   UNL     1      -0.515  -6.035   0.059  0.00  0.00    +0.081 A 
ATOM     33  C   UNL     1       0.908  -6.259  -0.268  0.00  0.00    +0.069 C 
ENDBRANCH  23  26
ENDBRANCH  15   9
TORSDOF 8
