REMARK  Name = 75536255
REMARK  7 active torsions:
REMARK  status: ('A' for Active; 'I' for Inactive)
REMARK    1  A    between atoms: O_3  and  C_9
REMARK    2  A    between atoms: N_5  and  C_7
REMARK    3  A    between atoms: N_5  and  C_12
REMARK    4  A    between atoms: C_8  and  C_12
REMARK    5  A    between atoms: C_13  and  C_19
REMARK    6  A    between atoms: C_19  and  C_20
REMARK    7  A    between atoms: C_22  and  C_23
REMARK                            x       y       z     vdW  Elec       q    Type
REMARK                         _______ _______ _______ _____ _____    ______ ____
ROOT
ATOM      2  O   UNL     1       2.688  -1.063   0.874  0.00  0.00    -0.369 OA
ATOM      8  C   UNL     1       3.530   0.055   1.186  0.00  0.00    +0.161 C 
ATOM      9  C   UNL     1       4.999  -0.246   0.864  0.00  0.00    +0.145 C 
ATOM     13  C   UNL     1       2.779  -1.536  -0.472  0.00  0.00    +0.125 C 
ATOM     14  C   UNL     1       5.183  -0.812  -0.541  0.00  0.00    +0.036 C 
ATOM     15  C   UNL     1       4.211  -1.960  -0.798  0.00  0.00    +0.034 C 
ENDROOT
BRANCH   9   3
ATOM      3  O   UNL     1       5.484  -1.219   1.793  0.00  0.00    -0.389 OA
ATOM     30  H   UNL     1       6.428  -1.361   1.604  0.00  0.00    +0.210 HD
ENDBRANCH   9   3
BRANCH   8  12
ATOM     12  C   UNL     1       3.021   1.330   0.516  0.00  0.00    +0.115 C 
BRANCH  12   5
ATOM      5  N   UNL     1       1.633   1.584   0.870  0.00  0.00    -0.311 NA
ATOM     29  H   UNL     1       1.562   1.658   1.885  0.00  0.00    +0.122 HD
BRANCH   5   7
ATOM      7  C   UNL     1       1.151   2.816   0.249  0.00  0.00    +0.054 C 
ATOM     10  C   UNL     1       0.791   2.553  -1.218  0.00  0.00    +0.019 C 
ATOM     11  C   UNL     1      -0.056   3.353   1.026  0.00  0.00    +0.019 C 
ATOM     16  C   UNL     1       0.210   3.801  -1.880  0.00  0.00    +0.002 C 
ATOM     17  C   UNL     1      -0.635   4.601   0.361  0.00  0.00    +0.002 C 
ATOM     18  C   UNL     1      -0.985   4.347  -1.102  0.00  0.00    +0.000 C 
ENDBRANCH   5   7
ENDBRANCH  12   5
ENDBRANCH   8  12
BRANCH  13  19
ATOM     19  C   UNL     1       1.821  -2.713  -0.610  0.00  0.00    +0.090 C 
BRANCH  19  20
ATOM      4  O   UNL     1      -1.426  -1.622  -1.731  0.00  0.00    -0.354 OA
ATOM      6  N   UNL     1      -0.115  -2.019  -1.963  0.00  0.00    -0.083 NA
ATOM     20  C   UNL     1       0.394  -2.256  -0.750  0.00  0.00    +0.087 A 
ATOM     21  C   UNL     1      -0.541  -2.028   0.275  0.00  0.00    +0.076 A 
ATOM     22  C   UNL     1      -1.668  -1.631  -0.395  0.00  0.00    +0.167 A 
BRANCH  22  23
ATOM      1  F   UNL     1      -6.801  -0.130   1.138  0.00  0.00    -0.205 F 
ATOM     23  C   UNL     1      -2.991  -1.243   0.000  0.00  0.00    +0.020 A 
ATOM     24  C   UNL     1      -3.337  -1.223   1.351  0.00  0.00    +0.014 A 
ATOM     25  C   UNL     1      -3.931  -0.887  -0.966  0.00  0.00    +0.014 A 
ATOM     26  C   UNL     1      -4.624  -0.847   1.736  0.00  0.00    +0.039 A 
ATOM     27  C   UNL     1      -5.218  -0.511  -0.582  0.00  0.00    +0.039 A 
ATOM     28  C   UNL     1      -5.565  -0.491   0.769  0.00  0.00    +0.123 A 
ENDBRANCH  22  23
ENDBRANCH  19  20
ENDBRANCH  13  19
TORSDOF 7
