REMARK  Name = 45783447
REMARK  9 active torsions:
REMARK  status: ('A' for Active; 'I' for Inactive)
REMARK    1  A    between atoms: O_2  and  C_23
REMARK    2  A    between atoms: O_2  and  C_26
REMARK    3  A    between atoms: O_3  and  C_27
REMARK    4  A    between atoms: O_3  and  C_28
REMARK    5  A    between atoms: N_4  and  C_9
REMARK    6  A    between atoms: N_5  and  C_19
REMARK    7  A    between atoms: C_10  and  C_18
REMARK    8  A    between atoms: C_20  and  C_21
REMARK    9  A    between atoms: C_26  and  C_27
REMARK                            x       y       z     vdW  Elec       q    Type
REMARK                         _______ _______ _______ _____ _____    ______ ____
ROOT
ATOM      1  O   UNL     1      -1.402   2.893  -0.612  0.00  0.00    -0.336 OA
ATOM      6  N   UNL     1      -0.348   1.095   0.210  0.00  0.00    -0.189 NA
ATOM      7  N   UNL     1      -0.151   2.854  -1.240  0.00  0.00    -0.054 NA
ATOM     18  C   UNL     1      -1.437   1.823   0.225  0.00  0.00    +0.245 A 
ATOM     20  C   UNL     1       0.411   1.767  -0.703  0.00  0.00    +0.221 A 
ENDROOT
BRANCH  20  21
ATOM      8  N   UNL     1       2.373   2.082  -1.974  0.00  0.00    -0.252 NA
ATOM     21  C   UNL     1       1.729   1.325  -1.057  0.00  0.00    +0.115 A 
ATOM     22  C   UNL     1       2.268   0.192  -0.470  0.00  0.00    +0.077 A 
ATOM     23  C   UNL     1       3.550  -0.191  -0.849  0.00  0.00    +0.124 A 
ATOM     24  C   UNL     1       3.617   1.679  -2.318  0.00  0.00    +0.115 A 
ATOM     25  C   UNL     1       4.244   0.561  -1.790  0.00  0.00    +0.065 A 
BRANCH  23   2
ATOM      2  O   UNL     1       4.123  -1.297  -0.302  0.00  0.00    -0.490 OA
BRANCH   2  26
ATOM     26  C   UNL     1       5.545  -1.299  -0.179  0.00  0.00    +0.257 C 
BRANCH  26  27
ATOM     27  C   UNL     1       5.935  -2.119   1.036  0.00  0.00    +0.200 C 
BRANCH  27   3
ATOM      3  O   UNL     1       5.366  -1.527   2.197  0.00  0.00    -0.380 OA
ATOM     28  C   UNL     1       5.682  -2.269   3.367  0.00  0.00    +0.194 C 
ENDBRANCH  27   3
ENDBRANCH  26  27
ENDBRANCH   2  26
ENDBRANCH  23   2
ENDBRANCH  20  21
BRANCH  18  10
ATOM      4  N   UNL     1      -2.950   0.225   1.387  0.00  0.00    -0.288 NA
ATOM     10  C   UNL     1      -2.704   1.637   1.032  0.00  0.00    +0.146 C 
ATOM     11  C   UNL     1      -3.688   0.239   2.650  0.00  0.00    +0.085 C 
ATOM     14  C   UNL     1      -2.665   2.379   2.381  0.00  0.00    +0.030 C 
ATOM     15  C   UNL     1      -2.958   1.315   3.429  0.00  0.00    +0.017 C 
BRANCH   4   9
ATOM      5  N   UNL     1      -3.720  -2.725  -1.573  0.00  0.00    -0.305 NA
ATOM      9  C   UNL     1      -3.656  -0.517   0.346  0.00  0.00    +0.060 C 
ATOM     12  C   UNL     1      -3.866  -1.970   0.779  0.00  0.00    +0.034 C 
ATOM     13  C   UNL     1      -2.886  -0.472  -0.977  0.00  0.00    +0.034 C 
ATOM     16  C   UNL     1      -4.516  -2.788  -0.339  0.00  0.00    +0.085 C 
ATOM     17  C   UNL     1      -3.568  -1.339  -2.038  0.00  0.00    +0.085 C 
ATOM     19  C   UNL     1      -4.327  -3.551  -2.616  0.00  0.00    +0.104 C 
ENDBRANCH   4   9
ENDBRANCH  18  10
TORSDOF 7
