REMARK  Name = 75367055
REMARK  6 active torsions:
REMARK  status: ('A' for Active; 'I' for Inactive)
REMARK    1  A    between atoms: O_2  and  C_10
REMARK    2  A    between atoms: N_4  and  C_6
REMARK    3  A    between atoms: N_4  and  C_7
REMARK    4  A    between atoms: N_5  and  C_14
REMARK    5  A    between atoms: C_12  and  C_14
REMARK    6  A    between atoms: C_15  and  C_16
REMARK                            x       y       z     vdW  Elec       q    Type
REMARK                         _______ _______ _______ _____ _____    ______ ____
ROOT
ATOM      1  O   UNL     1       0.694   1.210  -0.050  0.00  0.00    -0.371 OA
ATOM      7  C   UNL     1      -1.154  -0.258   0.218  0.00  0.00    +0.111 C 
ATOM     10  C   UNL     1      -0.014  -1.013  -0.440  0.00  0.00    +0.164 C 
ATOM     12  C   UNL     1       1.175  -0.144  -0.052  0.00  0.00    +0.165 C 
ATOM     13  C   UNL     1      -0.744   1.184  -0.032  0.00  0.00    +0.181 C 
ENDROOT
BRANCH  10   2
ATOM      2  O   UNL     1       0.118  -2.335   0.045  0.00  0.00    -0.388 OA
ATOM     18  H   UNL     1       0.229  -2.297   1.010  0.00  0.00    +0.210 HD
ENDBRANCH  10   2
BRANCH   7   4
ATOM      4  N   UNL     1      -2.461  -0.579  -0.333  0.00  0.00    -0.306 NA
ATOM     17  H   UNL     1      -2.530  -1.593  -0.419  0.00  0.00    +0.123 HD
BRANCH   4   6
ATOM      6  C   UNL     1      -3.499  -0.009   0.513  0.00  0.00    +0.054 C 
ATOM      8  C   UNL     1      -4.843  -0.705   0.207  0.00  0.00    +0.019 C 
ATOM      9  C   UNL     1      -4.079   1.249  -0.169  0.00  0.00    +0.019 C 
ATOM     11  C   UNL     1      -5.475   0.706   0.213  0.00  0.00    +0.003 C 
ENDBRANCH   4   6
ENDBRANCH   7   4
BRANCH  12  14
ATOM     14  C   UNL     1       2.348  -0.271  -1.008  0.00  0.00    +0.138 C 
BRANCH  14   5
ATOM      3  O   UNL     1       4.545  -0.965   0.759  0.00  0.00    -0.276 OA
ATOM      5  N   UNL     1       3.442   0.567  -0.606  0.00  0.00    -0.313 N 
ATOM     15  C   UNL     1       4.455   0.148   0.249  0.00  0.00    +0.210 C 
ATOM     16  C   UNL     1       5.489   1.216   0.486  0.00  0.00    +0.109 C 
ATOM     19  H   UNL     1       3.467   1.515  -0.969  0.00  0.00    +0.149 HD
ENDBRANCH  14   5
ENDBRANCH  12  14
TORSDOF 5
