REMARK  Name = 11943013
REMARK  7 active torsions:
REMARK  status: ('A' for Active; 'I' for Inactive)
REMARK    1  A    between atoms: O_7  and  C_29
REMARK    2  A    between atoms: O_7  and  C_37
REMARK    3  A    between atoms: N_8  and  C_15
REMARK    4  A    between atoms: N_9  and  C_16
REMARK    5  A    between atoms: N_10  and  C_22
REMARK    6  A    between atoms: C_21  and  C_25
REMARK    7  A    between atoms: C_28  and  C_33
REMARK                            x       y       z     vdW  Elec       q    Type
REMARK                         _______ _______ _______ _____ _____    ______ ____
ROOT
ATOM      4  O   UNL     1      -0.840  -4.068   0.088  0.00  0.00    -0.370 OA
ATOM      5  O   UNL     1      -1.390  -1.674   2.013  0.00  0.00    -0.370 OA
ATOM     13  C   UNL     1      -1.425  -1.815   0.582  0.00  0.00    +0.171 C 
ATOM     14  C   UNL     1      -0.291  -2.744   0.194  0.00  0.00    +0.171 C 
ATOM     15  C   UNL     1      -2.671  -2.556   0.159  0.00  0.00    +0.130 C 
ATOM     16  C   UNL     1       0.666  -2.664   1.361  0.00  0.00    +0.131 C 
ATOM     17  C   UNL     1      -2.258  -4.010   0.301  0.00  0.00    +0.185 C 
ATOM     18  C   UNL     1      -0.267  -2.404   2.530  0.00  0.00    +0.185 C 
ENDROOT
BRANCH  15   8
ATOM      8  N   UNL     1      -2.981  -2.256  -1.222  0.00  0.00    -0.306 N 
ATOM     11  N   UNL     1      -4.140  -0.330  -0.642  0.00  0.00    -0.214 NA
ATOM     12  N   UNL     1      -3.913  -1.008  -2.943  0.00  0.00    -0.223 NA
ATOM     19  C   UNL     1      -3.709  -1.150  -1.619  0.00  0.00    +0.216 A 
ATOM     21  C   UNL     1      -4.847   0.738  -1.065  0.00  0.00    +0.080 A 
ATOM     23  C   UNL     1      -4.627   0.081  -3.296  0.00  0.00    +0.116 A 
ATOM     24  C   UNL     1      -5.124   0.998  -2.392  0.00  0.00    +0.048 A 
ATOM     38  H   UNL     1      -2.609  -2.849  -1.955  0.00  0.00    +0.149 HD
BRANCH  21  25
ATOM     25  C   UNL     1      -5.310   1.620  -0.021  0.00  0.00    +0.042 A 
ATOM     29  C   UNL     1      -4.407   2.255   0.833  0.00  0.00    +0.129 A 
ATOM     30  C   UNL     1      -6.680   1.835   0.130  0.00  0.00    +0.013 A 
ATOM     34  C   UNL     1      -4.874   3.104   1.836  0.00  0.00    +0.046 A 
ATOM     35  C   UNL     1      -7.147   2.684   1.134  0.00  0.00    +0.001 A 
ATOM     36  C   UNL     1      -6.244   3.318   1.986  0.00  0.00    +0.004 A 
BRANCH  29   7
ATOM      7  O   UNL     1      -3.062   2.063   0.708  0.00  0.00    -0.494 OA
ATOM     37  C   UNL     1      -2.359   2.956  -0.152  0.00  0.00    +0.277 C 
ENDBRANCH  29   7
ENDBRANCH  21  25
ENDBRANCH  15   8
BRANCH  16   9
ATOM      6  O   UNL     1       3.301  -2.843   0.251  0.00  0.00    -0.252 OA
ATOM      9  N   UNL     1       1.607  -1.583   1.192  0.00  0.00    -0.292 N 
ATOM     10  N   UNL     1       3.564  -0.537   0.600  0.00  0.00    -0.269 N 
ATOM     20  C   UNL     1       2.881  -1.755   0.638  0.00  0.00    +0.304 C 
ATOM     39  H   UNL     1       1.307  -0.641   1.425  0.00  0.00    +0.151 HD
ATOM     40  H   UNL     1       3.071   0.275   0.964  0.00  0.00    +0.156 HD
BRANCH  10  22
ATOM     22  C   UNL     1       4.870  -0.288   0.117  0.00  0.00    +0.035 A 
ATOM     26  C   UNL     1       5.396   1.003   0.160  0.00  0.00    +0.035 A 
ATOM     27  C   UNL     1       5.632  -1.335  -0.403  0.00  0.00    +0.023 A 
ATOM     28  C   UNL     1       6.684   1.247  -0.317  0.00  0.00    +0.057 A 
ATOM     31  C   UNL     1       6.920  -1.090  -0.879  0.00  0.00    +0.002 A 
ATOM     32  C   UNL     1       7.446   0.201  -0.837  0.00  0.00    +0.012 A 
BRANCH  28  33
ATOM      1  F   UNL     1       8.515   2.719  -0.770  0.00  0.00    -0.166 F 
ATOM      2  F   UNL     1       6.519   3.539  -0.982  0.00  0.00    -0.166 F 
ATOM      3  F   UNL     1       7.317   3.124   0.998  0.00  0.00    -0.166 F 
ATOM     33  C   UNL     1       7.247   2.627  -0.271  0.00  0.00    +0.417 C 
ENDBRANCH  28  33
ENDBRANCH  10  22
ENDBRANCH  16   9
TORSDOF 6
