REMARK  Name = 38028516
REMARK  15 active torsions:
REMARK  status: ('A' for Active; 'I' for Inactive)
REMARK    1  A    between atoms: N_3  and  C_13
REMARK    2  A    between atoms: N_4  and  C_25
REMARK    3  A    between atoms: C_6  and  C_10
REMARK    4  A    between atoms: C_7  and  C_13
REMARK    5  A    between atoms: C_9  and  C_14
REMARK    6  A    between atoms: C_10  and  C_15
REMARK    7  A    between atoms: C_10  and  C_16
REMARK    8  A    between atoms: C_11  and  C_17
REMARK    9  A    between atoms: C_14  and  C_18
REMARK   10  A    between atoms: C_19  and  C_20
REMARK   11  A    between atoms: C_20  and  C_21
REMARK   12  A    between atoms: C_21  and  C_22
REMARK   13  A    between atoms: C_21  and  C_23
REMARK   14  A    between atoms: C_21  and  C_24
REMARK   15  A    between atoms: C_25  and  C_26
REMARK                            x       y       z     vdW  Elec       q    Type
REMARK                         _______ _______ _______ _____ _____    ______ ____
ROOT
ATOM      6  C   UNL     1       0.194   1.459  -1.251  0.00  0.00    +0.000 C 
ATOM      7  C   UNL     1       1.578   2.143  -1.387  0.00  0.00    +0.032 C 
ATOM      8  C   UNL     1      -0.797   2.391  -0.538  0.00  0.00    +0.012 C 
ATOM      9  C   UNL     1      -0.311   2.794   0.867  0.00  0.00    +0.023 C 
ATOM     11  C   UNL     1       1.140   3.229   0.857  0.00  0.00    -0.073 C 
ATOM     12  C   UNL     1       1.966   2.940  -0.165  0.00  0.00    -0.022 C 
ATOM     17  C   UNL     1       1.611   4.044   2.030  0.00  0.00    +0.039 C 
ENDROOT
BRANCH   6  10
ATOM     10  C   UNL     1      -0.371   1.044  -2.613  0.00  0.00    -0.013 C 
ATOM     15  C   UNL     1      -1.364  -0.103  -2.449  0.00  0.00    +0.007 C 
ATOM     16  C   UNL     1      -1.030   2.235  -3.301  0.00  0.00    +0.007 C 
ENDBRANCH   6  10
BRANCH   7  13
ATOM     13  C   UNL     1       2.674   1.117  -1.697  0.00  0.00    +0.112 C 
BRANCH  13   3
ATOM      2  O   UNL     1       2.355  -1.762  -1.704  0.00  0.00    -0.276 OA
ATOM      3  N   UNL     1       2.856   0.222  -0.597  0.00  0.00    -0.315 N 
ATOM     19  C   UNL     1       2.682  -1.158  -0.684  0.00  0.00    +0.214 C 
ATOM     31  H   UNL     1       3.183   0.612   0.282  0.00  0.00    +0.149 HD
BRANCH  19  20
ATOM     20  C   UNL     1       2.928  -1.885   0.628  0.00  0.00    +0.102 C 
BRANCH  20  21
ATOM     21  C   UNL     1       4.376  -2.395   0.822  0.00  0.00    -0.029 C 
ATOM     22  C   UNL     1       4.529  -3.129   2.165  0.00  0.00    +0.011 C 
ATOM     23  C   UNL     1       4.689  -3.389  -0.314  0.00  0.00    +0.011 C 
ATOM     24  C   UNL     1       5.393  -1.244   0.754  0.00  0.00    +0.011 C 
ENDBRANCH  20  21
ENDBRANCH  19  20
ENDBRANCH  13   3
ENDBRANCH   7  13
BRANCH   9  14
ATOM     14  C   UNL     1      -0.538   1.662   1.875  0.00  0.00    +0.103 C 
BRANCH  14  18
ATOM      1  O   UNL     1      -2.932   1.925   1.648  0.00  0.00    -0.276 OA
ATOM      4  N   UNL     1      -2.057  -0.152   2.214  0.00  0.00    -0.311 N 
ATOM     18  C   UNL     1      -1.976   1.194   1.891  0.00  0.00    +0.214 C 
ATOM     32  H   UNL     1      -1.206  -0.677   2.396  0.00  0.00    +0.149 HD
BRANCH   4  25
ATOM     25  C   UNL     1      -3.310  -0.868   2.305  0.00  0.00    +0.141 C 
BRANCH  25  26
ATOM      5  N   UNL     1      -3.186  -2.979  -0.829  0.00  0.00    -0.263 NA
ATOM     26  C   UNL     1      -3.706  -1.476   0.991  0.00  0.00    -0.012 A 
ATOM     27  C   UNL     1      -4.903  -1.131   0.373  0.00  0.00    +0.008 A 
ATOM     28  C   UNL     1      -2.890  -2.396   0.354  0.00  0.00    +0.115 A 
ATOM     29  C   UNL     1      -5.243  -1.709  -0.845  0.00  0.00    +0.020 A 
ATOM     30  C   UNL     1      -4.358  -2.620  -1.399  0.00  0.00    +0.111 A 
ENDBRANCH  25  26
ENDBRANCH   4  25
ENDBRANCH  14  18
ENDBRANCH   9  14
TORSDOF 9
