REMARK  Name = 7155596
REMARK  5 active torsions:
REMARK  status: ('A' for Active; 'I' for Inactive)
REMARK    1  A    between atoms: O_5  and  C_29
REMARK    2  A    between atoms: O_5  and  C_35
REMARK    3  A    between atoms: N_8  and  C_22
REMARK    4  A    between atoms: N_9  and  C_20
REMARK    5  A    between atoms: C_23  and  C_26
REMARK                            x       y       z     vdW  Elec       q    Type
REMARK                         _______ _______ _______ _____ _____    ______ ____
ROOT
ATOM      2  O   UNL     1      -0.833  -0.944   2.051  0.00  0.00    -0.266 OA
ATOM      3  O   UNL     1       3.435  -0.338  -2.002  0.00  0.00    -0.252 OA
ATOM      6  N   UNL     1       3.495  -1.939  -0.333  0.00  0.00    -0.284 N 
ATOM      7  N   UNL     1       0.505  -2.362   0.763  0.00  0.00    -0.310 N 
ATOM      8  N   UNL     1       4.088   0.297   0.131  0.00  0.00    -0.269 N 
ATOM     10  C   UNL     1       2.717  -3.327   1.609  0.00  0.00    +0.027 C 
ATOM     11  C   UNL     1       1.944  -3.864  -0.658  0.00  0.00    +0.054 C 
ATOM     12  C   UNL     1       2.429  -4.476   0.653  0.00  0.00    +0.018 C 
ATOM     13  C   UNL     1       3.796  -2.386   1.037  0.00  0.00    +0.114 C 
ATOM     14  C   UNL     1       1.407  -2.585   1.899  0.00  0.00    +0.130 C 
ATOM     15  C   UNL     1       3.064  -2.996  -1.256  0.00  0.00    +0.119 C 
ATOM     16  C   UNL     1       0.695  -3.027  -0.452  0.00  0.00    +0.027 A 
ATOM     17  C   UNL     1      -0.206  -2.901  -1.440  0.00  0.00    +0.024 A 
ATOM     18  C   UNL     1      -0.613  -1.535   0.993  0.00  0.00    +0.273 A 
ATOM     19  C   UNL     1       3.651  -0.623  -0.822  0.00  0.00    +0.306 C 
ATOM     20  C   UNL     1      -1.581  -1.400  -0.142  0.00  0.00    +0.099 A 
ATOM     21  C   UNL     1      -1.365  -2.069  -1.279  0.00  0.00    +0.030 A 
ATOM     36  H   UNL     1       4.649  -0.042   0.905  0.00  0.00    +0.156 HD
ENDROOT
BRANCH   8  22
ATOM     22  C   UNL     1       3.879   1.699   0.130  0.00  0.00    +0.035 A 
ATOM     24  C   UNL     1       4.467   2.487   1.115  0.00  0.00    +0.027 A 
ATOM     25  C   UNL     1       3.087   2.279  -0.858  0.00  0.00    +0.027 A 
ATOM     27  C   UNL     1       4.262   3.867   1.113  0.00  0.00    +0.047 A 
ATOM     28  C   UNL     1       2.882   3.659  -0.859  0.00  0.00    +0.047 A 
ATOM     29  C   UNL     1       3.470   4.453   0.126  0.00  0.00    +0.120 A 
BRANCH  29   5
ATOM      5  O   UNL     1       3.271   5.799   0.123  0.00  0.00    -0.495 OA
ATOM     35  C   UNL     1       2.449   6.332  -0.915  0.00  0.00    +0.277 C 
ENDBRANCH  29   5
ENDBRANCH   8  22
BRANCH  20   9
ATOM      4  O   UNL     1      -4.157  -1.766  -1.313  0.00  0.00    -0.270 OA
ATOM      9  N   UNL     1      -2.667  -0.595   0.035  0.00  0.00    -0.277 N 
ATOM     23  C   UNL     1      -3.898  -0.828  -0.564  0.00  0.00    +0.248 C 
ATOM     37  H   UNL     1      -2.620   0.045   0.824  0.00  0.00    +0.155 HD
BRANCH  23  26
ATOM      1  F   UNL     1      -7.926   2.832   0.681  0.00  0.00    -0.205 F 
ATOM     26  C   UNL     1      -4.970   0.147  -0.234  0.00  0.00    +0.037 A 
ATOM     30  C   UNL     1      -6.285  -0.267  -0.288  0.00  0.00    +0.016 A 
ATOM     31  C   UNL     1      -4.616   1.432   0.118  0.00  0.00    +0.016 A 
ATOM     32  C   UNL     1      -7.291   0.647   0.024  0.00  0.00    +0.039 A 
ATOM     33  C   UNL     1      -5.622   2.346   0.430  0.00  0.00    +0.039 A 
ATOM     34  C   UNL     1      -6.960   1.954   0.383  0.00  0.00    +0.123 A 
ENDBRANCH  23  26
ENDBRANCH  20   9
TORSDOF 4
