REMARK  Name = 38026875
REMARK  11 active torsions:
REMARK  status: ('A' for Active; 'I' for Inactive)
REMARK    1  A    between atoms: N_5  and  C_16
REMARK    2  A    between atoms: N_7  and  C_28
REMARK    3  A    between atoms: C_8  and  C_12
REMARK    4  A    between atoms: C_9  and  C_16
REMARK    5  A    between atoms: C_11  and  C_15
REMARK    6  A    between atoms: C_12  and  C_17
REMARK    7  A    between atoms: C_12  and  C_18
REMARK    8  A    between atoms: C_13  and  C_19
REMARK    9  A    between atoms: C_15  and  C_20
REMARK   10  A    between atoms: C_26  and  C_27
REMARK   11  A    between atoms: C_28  and  C_29
REMARK                            x       y       z     vdW  Elec       q    Type
REMARK                         _______ _______ _______ _____ _____    ______ ____
ROOT
ATOM      8  C   UNL     1      -2.726   0.939   0.673  0.00  0.00    +0.000 C 
ATOM      9  C   UNL     1      -3.734   0.908  -0.503  0.00  0.00    +0.032 C 
ATOM     10  C   UNL     1      -1.781   2.143   0.537  0.00  0.00    +0.012 C 
ATOM     11  C   UNL     1      -0.989   2.116  -0.784  0.00  0.00    +0.023 C 
ATOM     13  C   UNL     1      -1.884   1.821  -1.971  0.00  0.00    -0.073 C 
ATOM     14  C   UNL     1      -3.113   1.293  -1.825  0.00  0.00    -0.022 C 
ATOM     19  C   UNL     1      -1.352   2.188  -3.328  0.00  0.00    +0.039 C 
ENDROOT
BRANCH   8  12
ATOM     12  C   UNL     1      -3.435   0.987   2.030  0.00  0.00    -0.013 C 
ATOM     17  C   UNL     1      -2.531   0.427   3.123  0.00  0.00    +0.007 C 
ATOM     18  C   UNL     1      -3.860   2.415   2.357  0.00  0.00    +0.007 C 
ENDBRANCH   8  12
BRANCH  11  15
ATOM     15  C   UNL     1       0.173   1.119  -0.712  0.00  0.00    +0.103 C 
BRANCH  15  20
ATOM      1  O   UNL     1       1.153   2.810   0.627  0.00  0.00    -0.276 OA
ATOM      3  O   UNL     1       6.240  -2.098  -0.435  0.00  0.00    -0.276 OA
ATOM      4  N   UNL     1       2.412   0.885   0.302  0.00  0.00    -0.298 N 
ATOM      6  N   UNL     1       5.009  -0.147  -0.164  0.00  0.00    -0.299 N 
ATOM     20  C   UNL     1       1.284   1.687   0.134  0.00  0.00    +0.216 C 
ATOM     21  C   UNL     1       3.538   1.366   1.107  0.00  0.00    +0.126 C 
ATOM     22  C   UNL     1       2.567  -0.483  -0.209  0.00  0.00    +0.126 C 
ATOM     23  C   UNL     1       4.853   1.221   0.347  0.00  0.00    +0.126 C 
ATOM     24  C   UNL     1       3.883  -0.628  -0.970  0.00  0.00    +0.126 C 
ATOM     26  C   UNL     1       6.136  -0.950   0.005  0.00  0.00    +0.213 C 
ATOM     27  C   UNL     1       7.280  -0.351   0.783  0.00  0.00    +0.109 C 
ENDBRANCH  15  20
ENDBRANCH  11  15
BRANCH   9  16
ATOM     16  C   UNL     1      -4.392  -0.471  -0.631  0.00  0.00    +0.113 C 
BRANCH  16   5
ATOM      2  O   UNL     1      -3.675  -2.835   0.860  0.00  0.00    -0.253 OA
ATOM      5  N   UNL     1      -3.429  -1.461  -0.997  0.00  0.00    -0.299 N 
ATOM      7  N   UNL     1      -2.160  -3.385  -0.808  0.00  0.00    -0.300 N 
ATOM     25  C   UNL     1      -3.135  -2.586  -0.216  0.00  0.00    +0.300 C 
ATOM     30  H   UNL     1      -2.976  -1.385  -1.903  0.00  0.00    +0.150 HD
ATOM     31  H   UNL     1      -1.759  -3.091  -1.694  0.00  0.00    +0.150 HD
BRANCH   7  28
ATOM     28  C   UNL     1      -1.677  -4.606  -0.206  0.00  0.00    +0.102 C 
ATOM     29  C   UNL     1      -0.655  -4.324   0.875  0.00  0.00    +0.024 C 
ENDBRANCH   7  28
ENDBRANCH  16   5
ENDBRANCH   9  16
TORSDOF 6
