REMARK  Name = 75536265
REMARK  9 active torsions:
REMARK  status: ('A' for Active; 'I' for Inactive)
REMARK    1  A    between atoms: O_3  and  C_8
REMARK    2  A    between atoms: N_5  and  C_12
REMARK    3  A    between atoms: N_5  and  C_15
REMARK    4  A    between atoms: C_7  and  C_12
REMARK    5  A    between atoms: C_9  and  C_13
REMARK    6  A    between atoms: C_13  and  C_14
REMARK    7  A    between atoms: C_15  and  C_17
REMARK    8  A    between atoms: C_18  and  C_21
REMARK    9  A    between atoms: C_24  and  C_27
REMARK                            x       y       z     vdW  Elec       q    Type
REMARK                         _______ _______ _______ _____ _____    ______ ____
ROOT
ATOM      2  O   UNL     1       3.284  -0.347   0.867  0.00  0.00    -0.369 OA
ATOM      7  C   UNL     1       3.863   0.963   0.827  0.00  0.00    +0.161 C 
ATOM      8  C   UNL     1       5.379   0.897   0.602  0.00  0.00    +0.145 C 
ATOM      9  C   UNL     1       3.545  -1.163  -0.278  0.00  0.00    +0.125 C 
ATOM     10  C   UNL     1       5.753  -0.003  -0.573  0.00  0.00    +0.036 C 
ATOM     11  C   UNL     1       5.049  -1.353  -0.472  0.00  0.00    +0.034 C 
ENDROOT
BRANCH   8   3
ATOM      3  O   UNL     1       5.996   0.362   1.776  0.00  0.00    -0.389 OA
ATOM     32  H   UNL     1       6.958   0.372   1.632  0.00  0.00    +0.210 HD
ENDBRANCH   8   3
BRANCH   7  12
ATOM     12  C   UNL     1       3.147   1.851  -0.188  0.00  0.00    +0.115 C 
BRANCH  12   5
ATOM      5  N   UNL     1       1.718   1.900   0.082  0.00  0.00    -0.309 NA
ATOM     31  H   UNL     1       1.336   0.956   0.039  0.00  0.00    +0.122 HD
BRANCH   5  15
ATOM     15  C   UNL     1       1.034   2.755  -0.880  0.00  0.00    +0.116 C 
BRANCH  15  17
ATOM     17  C   UNL     1      -0.445   2.831  -0.610  0.00  0.00    -0.034 A 
ATOM     19  C   UNL     1      -0.988   3.968  -0.011  0.00  0.00    +0.005 A 
ATOM     20  C   UNL     1      -1.273   1.764  -0.960  0.00  0.00    +0.005 A 
ATOM     22  C   UNL     1      -2.359   4.038   0.237  0.00  0.00    +0.003 A 
ATOM     23  C   UNL     1      -2.644   1.835  -0.713  0.00  0.00    +0.003 A 
ATOM     24  C   UNL     1      -3.187   2.972  -0.114  0.00  0.00    -0.050 A 
ATOM     27  C   UNL     1      -4.653   3.048   0.150  0.00  0.00    +0.044 C 
ENDBRANCH  15  17
ENDBRANCH   5  15
ENDBRANCH  12   5
ENDBRANCH   7  12
BRANCH   9  13
ATOM     13  C   UNL     1       2.853  -2.502  -0.055  0.00  0.00    +0.090 C 
BRANCH  13  14
ATOM      4  O   UNL     1      -0.477  -2.492  -1.433  0.00  0.00    -0.354 OA
ATOM      6  N   UNL     1       0.898  -2.655  -1.542  0.00  0.00    -0.083 NA
ATOM     14  C   UNL     1       1.374  -2.416  -0.317  0.00  0.00    +0.087 A 
ATOM     16  C   UNL     1       0.355  -2.099   0.598  0.00  0.00    +0.076 A 
ATOM     18  C   UNL     1      -0.789  -2.161  -0.153  0.00  0.00    +0.167 A 
BRANCH  18  21
ATOM      1  F   UNL     1      -6.198  -1.389   0.892  0.00  0.00    -0.205 F 
ATOM     21  C   UNL     1      -2.183  -1.961   0.116  0.00  0.00    +0.020 A 
ATOM     25  C   UNL     1      -3.119  -2.107  -0.908  0.00  0.00    +0.014 A 
ATOM     26  C   UNL     1      -2.603  -1.621   1.402  0.00  0.00    +0.014 A 
ATOM     28  C   UNL     1      -4.475  -1.914  -0.646  0.00  0.00    +0.039 A 
ATOM     29  C   UNL     1      -3.959  -1.427   1.664  0.00  0.00    +0.039 A 
ATOM     30  C   UNL     1      -4.895  -1.574   0.640  0.00  0.00    +0.123 A 
ENDBRANCH  18  21
ENDBRANCH  13  14
ENDBRANCH   9  13
TORSDOF 8
