REMARK  Name = 45783503
REMARK  4 active torsions:
REMARK  status: ('A' for Active; 'I' for Inactive)
REMARK    1  A    between atoms: N_4  and  C_10
REMARK    2  A    between atoms: C_11  and  C_19
REMARK    3  A    between atoms: C_20  and  C_22
REMARK    4  A    between atoms: C_21  and  C_23
REMARK                            x       y       z     vdW  Elec       q    Type
REMARK                         _______ _______ _______ _____ _____    ______ ____
ROOT
ATOM      1  O   UNL     1      -1.360   2.623  -1.730  0.00  0.00    -0.336 OA
ATOM      6  N   UNL     1      -0.761   1.521   0.126  0.00  0.00    -0.190 NA
ATOM      7  N   UNL     1      -0.004   2.306  -1.885  0.00  0.00    -0.056 NA
ATOM     19  C   UNL     1      -1.726   2.125  -0.520  0.00  0.00    +0.245 A 
ATOM     21  C   UNL     1       0.276   1.658  -0.751  0.00  0.00    +0.204 A 
ENDROOT
BRANCH  21  23
ATOM      3  O   UNL     1       7.949  -1.404   0.554  0.00  0.00    -0.377 OA
ATOM      8  N   UNL     1       5.363  -0.334   0.287  0.00  0.00    -0.311 N 
ATOM      9  N   UNL     1       3.875   0.813  -1.151  0.00  0.00    -0.240 NA
ATOM     23  C   UNL     1       1.580   1.135  -0.462  0.00  0.00    +0.041 A 
ATOM     24  C   UNL     1       1.836   0.467   0.730  0.00  0.00    +0.016 A 
ATOM     25  C   UNL     1       5.551  -1.772   0.510  0.00  0.00    +0.134 C 
ATOM     26  C   UNL     1       6.520   0.365  -0.290  0.00  0.00    +0.134 C 
ATOM     27  C   UNL     1       4.086   0.169   0.018  0.00  0.00    +0.121 A 
ATOM     28  C   UNL     1       2.624   1.281  -1.362  0.00  0.00    +0.124 A 
ATOM     29  C   UNL     1       6.862  -2.011   1.251  0.00  0.00    +0.178 C 
ATOM     30  C   UNL     1       7.778   0.012   0.495  0.00  0.00    +0.178 C 
ATOM     31  C   UNL     1       3.111  -0.029   0.982  0.00  0.00    +0.044 A 
ENDBRANCH  21  23
BRANCH  19  11
ATOM      4  N   UNL     1      -3.657   1.296   0.813  0.00  0.00    -0.288 NA
ATOM     11  C   UNL     1      -3.169   2.339  -0.112  0.00  0.00    +0.146 C 
ATOM     12  C   UNL     1      -4.682   1.929   1.644  0.00  0.00    +0.085 C 
ATOM     13  C   UNL     1      -3.382   3.663   0.644  0.00  0.00    +0.030 C 
ATOM     16  C   UNL     1      -4.050   3.270   1.954  0.00  0.00    +0.017 C 
BRANCH   4  10
ATOM      2  O   UNL     1      -4.031  -4.836   0.575  0.00  0.00    -0.276 OA
ATOM      5  N   UNL     1      -4.024  -2.732  -0.411  0.00  0.00    -0.302 N 
ATOM     10  C   UNL     1      -4.162   0.109   0.127  0.00  0.00    +0.060 C 
ATOM     14  C   UNL     1      -3.067  -0.487  -0.768  0.00  0.00    +0.038 C 
ATOM     15  C   UNL     1      -4.640  -0.927   1.152  0.00  0.00    +0.038 C 
ATOM     17  C   UNL     1      -3.541  -1.784  -1.423  0.00  0.00    +0.109 C 
ATOM     18  C   UNL     1      -5.082  -2.215   0.459  0.00  0.00    +0.109 C 
ATOM     20  C   UNL     1      -3.583  -4.047  -0.261  0.00  0.00    +0.212 C 
ATOM     22  C   UNL     1      -2.489  -4.503  -1.193  0.00  0.00    +0.109 C 
ENDBRANCH   4  10
ENDBRANCH  19  11
TORSDOF 3
