REMARK  Name = 40533566
REMARK  3 active torsions:
REMARK  status: ('A' for Active; 'I' for Inactive)
REMARK    1  A    between atoms: S_1  and  N_6
REMARK    2  A    between atoms: S_1  and  C_20
REMARK    3  A    between atoms: C_18  and  C_21
REMARK                            x       y       z     vdW  Elec       q    Type
REMARK                         _______ _______ _______ _____ _____    ______ ____
ROOT
ATOM      5  O   UNL     1       1.953   1.573   1.621  0.00  0.00    -0.267 OA
ATOM      6  N   UNL     1      -2.758   0.589   0.327  0.00  0.00    -0.175 NA
ATOM      7  N   UNL     1       0.193   1.693   0.096  0.00  0.00    -0.311 N 
ATOM      9  C   UNL     1      -1.983   2.947   0.597  0.00  0.00    +0.025 C 
ATOM     10  C   UNL     1      -1.699   1.811  -1.562  0.00  0.00    +0.052 C 
ATOM     11  C   UNL     1      -2.050   3.146  -0.911  0.00  0.00    +0.017 C 
ATOM     12  C   UNL     1      -2.989   1.874   1.045  0.00  0.00    +0.114 C 
ATOM     13  C   UNL     1      -2.741   0.752  -1.158  0.00  0.00    +0.119 C 
ATOM     14  C   UNL     1      -0.542   2.598   0.989  0.00  0.00    +0.130 C 
ATOM     15  C   UNL     1      -0.306   1.359  -1.165  0.00  0.00    +0.026 A 
ATOM     16  C   UNL     1       0.435   0.626  -2.011  0.00  0.00    +0.022 A 
ATOM     17  C   UNL     1       1.465   1.270   0.531  0.00  0.00    +0.259 A 
ATOM     18  C   UNL     1       2.258   0.419  -0.424  0.00  0.00    +0.048 A 
ATOM     19  C   UNL     1       1.733   0.146  -1.629  0.00  0.00    +0.015 A 
ENDROOT
BRANCH  18  21
ATOM      8  N   UNL     1       5.950  -0.255  -0.506  0.00  0.00    -0.263 NA
ATOM     21  C   UNL     1       3.579  -0.115  -0.054  0.00  0.00    +0.005 A 
ATOM     24  C   UNL     1       3.732  -0.954   1.045  0.00  0.00    +0.011 A 
ATOM     26  C   UNL     1       4.710   0.201  -0.790  0.00  0.00    +0.119 A 
ATOM     27  C   UNL     1       4.993  -1.443   1.369  0.00  0.00    +0.020 A 
ATOM     28  C   UNL     1       6.060  -1.067   0.569  0.00  0.00    +0.111 A 
ENDBRANCH  18  21
BRANCH   6   1
ATOM      1  S   UNL     1      -3.638  -0.756   0.913  0.00  0.00    +0.067 S 
ATOM      3  O   UNL     1      -4.976  -0.725   0.360  0.00  0.00    -0.152 OA
ATOM      4  O   UNL     1      -3.425  -0.873   2.340  0.00  0.00    -0.152 OA
BRANCH   1  20
ATOM      2  S   UNL     1      -1.178  -2.337   0.726  0.00  0.00    -0.077 S 
ATOM     20  C   UNL     1      -2.760  -2.070   0.125  0.00  0.00    +0.143 A 
ATOM     22  C   UNL     1      -3.081  -2.943  -0.891  0.00  0.00    +0.036 A 
ATOM     23  C   UNL     1      -2.015  -3.843  -1.180  0.00  0.00    +0.010 A 
ATOM     25  C   UNL     1      -0.920  -3.624  -0.374  0.00  0.00    +0.047 A 
ENDBRANCH   1  20
ENDBRANCH   6   1
TORSDOF 3
