REMARK  Name = 38027645
REMARK  15 active torsions:
REMARK  status: ('A' for Active; 'I' for Inactive)
REMARK    1  A    between atoms: S_1  and  N_6
REMARK    2  A    between atoms: S_1  and  C_22
REMARK    3  A    between atoms: O_5  and  C_26
REMARK    4  A    between atoms: O_5  and  C_31
REMARK    5  A    between atoms: N_6  and  C_16
REMARK    6  A    between atoms: N_7  and  C_23
REMARK    7  A    between atoms: C_9  and  C_13
REMARK    8  A    between atoms: C_10  and  C_16
REMARK    9  A    between atoms: C_12  and  C_17
REMARK   10  A    between atoms: C_13  and  C_18
REMARK   11  A    between atoms: C_13  and  C_19
REMARK   12  A    between atoms: C_14  and  C_20
REMARK   13  A    between atoms: C_17  and  C_21
REMARK   14  A    between atoms: C_23  and  C_26
REMARK   15  A    between atoms: C_27  and  C_30
REMARK                            x       y       z     vdW  Elec       q    Type
REMARK                         _______ _______ _______ _____ _____    ______ ____
ROOT
ATOM      9  C   UNL     1       0.994   1.379  -1.114  0.00  0.00    +0.000 C 
ATOM     10  C   UNL     1       2.357   1.969  -0.675  0.00  0.00    +0.030 C 
ATOM     11  C   UNL     1      -0.093   2.463  -1.087  0.00  0.00    +0.012 C 
ATOM     12  C   UNL     1      -0.260   3.086   0.312  0.00  0.00    +0.023 C 
ATOM     14  C   UNL     1       1.076   3.451   0.928  0.00  0.00    -0.073 C 
ATOM     15  C   UNL     1       2.236   2.952   0.465  0.00  0.00    -0.023 C 
ATOM     20  C   UNL     1       1.052   4.439   2.061  0.00  0.00    +0.039 C 
ENDROOT
BRANCH   9  13
ATOM     13  C   UNL     1       1.068   0.754  -2.511  0.00  0.00    -0.013 C 
ATOM     18  C   UNL     1      -0.258   0.090  -2.868  0.00  0.00    +0.007 C 
ATOM     19  C   UNL     1       1.441   1.810  -3.547  0.00  0.00    +0.007 C 
ENDBRANCH   9  13
BRANCH  10  16
ATOM     16  C   UNL     1       3.342   0.859  -0.289  0.00  0.00    +0.113 C 
BRANCH  16   6
ATOM      6  N   UNL     1       2.842   0.168   0.910  0.00  0.00    -0.189 NA
ATOM     32  H   UNL     1       2.661   0.749   1.738  0.00  0.00    +0.148 HD
BRANCH   6   1
ATOM      1  S   UNL     1       3.198  -1.479   1.162  0.00  0.00    +0.058 S 
ATOM      3  O   UNL     1       3.117  -1.775   2.579  0.00  0.00    -0.153 OA
ATOM      4  O   UNL     1       4.389  -1.827   0.411  0.00  0.00    -0.153 OA
BRANCH   1  22
ATOM     22  C   UNL     1       1.834  -2.268   0.361  0.00  0.00    +0.106 A 
ATOM     24  C   UNL     1       0.675  -2.558   1.081  0.00  0.00    +0.047 A 
ATOM     25  C   UNL     1       1.918  -2.603  -0.990  0.00  0.00    +0.028 A 
ATOM     27  C   UNL     1      -0.400  -3.183   0.449  0.00  0.00    +0.054 A 
ATOM     28  C   UNL     1       0.843  -3.228  -1.622  0.00  0.00    +0.003 A 
ATOM     29  C   UNL     1      -0.316  -3.518  -0.902  0.00  0.00    +0.019 A 
BRANCH  27  30
ATOM      8  N   UNL     1      -2.552  -3.721   1.784  0.00  0.00    -0.191 NA
ATOM     30  C   UNL     1      -1.588  -3.480   1.186  0.00  0.00    +0.099 C 
ENDBRANCH  27  30
ENDBRANCH   1  22
ENDBRANCH   6   1
ENDBRANCH  16   6
ENDBRANCH  10  16
BRANCH  12  17
ATOM     17  C   UNL     1      -1.056   2.160   1.238  0.00  0.00    +0.103 C 
BRANCH  17  21
ATOM      2  O   UNL     1      -3.127   3.111   0.424  0.00  0.00    -0.276 OA
ATOM      7  N   UNL     1      -3.099   0.920   1.199  0.00  0.00    -0.313 N 
ATOM     21  C   UNL     1      -2.530   2.148   0.900  0.00  0.00    +0.214 C 
ATOM     33  H   UNL     1      -2.522   0.181   1.590  0.00  0.00    +0.149 HD
BRANCH   7  23
ATOM     23  C   UNL     1      -4.497   0.623   0.981  0.00  0.00    +0.132 C 
BRANCH  23  26
ATOM     26  C   UNL     1      -4.684   0.056  -0.415  0.00  0.00    +0.178 C 
BRANCH  26   5
ATOM      5  O   UNL     1      -3.893  -1.117  -0.558  0.00  0.00    -0.381 OA
ATOM     31  C   UNL     1      -4.031  -1.683  -1.854  0.00  0.00    +0.194 C 
ENDBRANCH  26   5
ENDBRANCH  23  26
ENDBRANCH   7  23
ENDBRANCH  17  21
ENDBRANCH  12  17
TORSDOF 11
