REMARK  Name = 11883286
REMARK  7 active torsions:
REMARK  status: ('A' for Active; 'I' for Inactive)
REMARK    1  A    between atoms: S_1  and  N_8
REMARK    2  A    between atoms: S_1  and  C_17
REMARK    3  A    between atoms: O_4  and  C_13
REMARK    4  A    between atoms: O_4  and  C_16
REMARK    5  A    between atoms: N_8  and  C_12
REMARK    6  A    between atoms: C_16  and  C_18
REMARK    7  A    between atoms: C_23  and  C_24
REMARK                            x       y       z     vdW  Elec       q    Type
REMARK                         _______ _______ _______ _____ _____    ______ ____
ROOT
ATOM      2  O   UNL     1       1.964   1.538  -0.290  0.00  0.00    -0.370 OA
ATOM      3  O   UNL     1       0.268  -0.494  -1.837  0.00  0.00    -0.370 OA
ATOM     10  C   UNL     1       0.064   0.146  -0.560  0.00  0.00    +0.170 C 
ATOM     11  C   UNL     1       1.426   0.263   0.095  0.00  0.00    +0.179 C 
ATOM     12  C   UNL     1      -0.365   1.581  -0.762  0.00  0.00    +0.133 C 
ATOM     13  C   UNL     1       2.189  -0.879  -0.532  0.00  0.00    +0.176 C 
ATOM     14  C   UNL     1       0.961   2.284  -0.996  0.00  0.00    +0.183 C 
ATOM     15  C   UNL     1       1.643  -0.891  -1.943  0.00  0.00    +0.194 C 
ENDROOT
BRANCH  12   8
ATOM      8  N   UNL     1      -1.033   2.096   0.408  0.00  0.00    -0.182 NA
ATOM     25  H   UNL     1      -0.490   2.131   1.280  0.00  0.00    +0.148 HD
BRANCH   8   1
ATOM      1  S   UNL     1      -2.728   2.047   0.505  0.00  0.00    +0.059 S 
ATOM      5  O   UNL     1      -3.296   2.691  -0.664  0.00  0.00    -0.153 OA
ATOM      6  O   UNL     1      -3.132   2.461   1.835  0.00  0.00    -0.153 OA
BRANCH   1  17
ATOM     17  C   UNL     1      -3.050   0.314   0.384  0.00  0.00    +0.105 A 
ATOM     19  C   UNL     1      -3.102  -0.446   1.540  0.00  0.00    +0.029 A 
ATOM     20  C   UNL     1      -3.245  -0.252  -0.865  0.00  0.00    +0.029 A 
ATOM     21  C   UNL     1      -3.357  -1.814   1.445  0.00  0.00    +0.005 A 
ATOM     22  C   UNL     1      -3.499  -1.621  -0.959  0.00  0.00    +0.005 A 
ATOM     23  C   UNL     1      -3.555  -2.401   0.195  0.00  0.00    -0.050 A 
ATOM     24  C   UNL     1      -3.827  -3.864   0.094  0.00  0.00    +0.044 C 
ENDBRANCH   1  17
ENDBRANCH   8   1
ENDBRANCH  12   8
BRANCH  13   4
ATOM      4  O   UNL     1       3.587  -0.704  -0.506  0.00  0.00    -0.362 OA
BRANCH   4  16
ATOM     16  C   UNL     1       4.098  -0.693   0.825  0.00  0.00    +0.255 C 
BRANCH  16  18
ATOM      7  O   UNL     1       6.242  -0.382  -0.248  0.00  0.00    -0.274 OA
ATOM      9  N   UNL     1       6.152  -0.477   2.049  0.00  0.00    -0.327 N 
ATOM     18  C   UNL     1       5.596  -0.502   0.789  0.00  0.00    +0.236 C 
ATOM     26  H   UNL     1       7.151  -0.355   2.177  0.00  0.00    +0.145 HD
ATOM     27  H   UNL     1       5.594  -0.579   2.891  0.00  0.00    +0.145 HD
ENDBRANCH  16  18
ENDBRANCH   4  16
ENDBRANCH  13   4
TORSDOF 6
