REMARK  Name = 11865954
REMARK  6 active torsions:
REMARK  status: ('A' for Active; 'I' for Inactive)
REMARK    1  A    between atoms: O_6  and  C_29
REMARK    2  A    between atoms: O_6  and  C_34
REMARK    3  A    between atoms: N_10  and  C_15
REMARK    4  A    between atoms: C_21  and  C_23
REMARK    5  A    between atoms: C_22  and  C_24
REMARK    6  A    between atoms: C_24  and  C_26
REMARK                            x       y       z     vdW  Elec       q    Type
REMARK                         _______ _______ _______ _____ _____    ______ ____
ROOT
ATOM      2  O   UNL     1      -1.189   0.158  -1.429  0.00  0.00    -0.273 OA
ATOM      3  O   UNL     1      -1.510  -5.046   0.933  0.00  0.00    -0.274 OA
ATOM      4  O   UNL     1      -2.202   1.668   1.444  0.00  0.00    -0.269 OA
ATOM      7  N   UNL     1      -0.499  -1.915  -0.646  0.00  0.00    -0.287 N 
ATOM      8  N   UNL     1      -3.451   0.192   0.154  0.00  0.00    -0.284 N 
ATOM      9  N   UNL     1      -2.950  -3.400   0.365  0.00  0.00    -0.309 N 
ATOM     11  C   UNL     1      -2.531  -0.940   0.249  0.00  0.00    +0.182 C 
ATOM     12  C   UNL     1      -3.342  -2.143  -0.237  0.00  0.00    +0.104 C 
ATOM     13  C   UNL     1      -0.480  -2.937   0.406  0.00  0.00    +0.164 C 
ATOM     14  C   UNL     1       0.810  -3.732   0.123  0.00  0.00    +0.055 C 
ATOM     15  C   UNL     1       1.701  -2.751  -0.635  0.00  0.00    +0.092 C 
ATOM     16  C   UNL     1       0.694  -1.987  -1.481  0.00  0.00    +0.131 C 
ATOM     17  C   UNL     1      -4.780  -1.744   0.083  0.00  0.00    +0.043 C 
ATOM     18  C   UNL     1      -1.343  -0.810  -0.687  0.00  0.00    +0.239 C 
ATOM     19  C   UNL     1      -4.785  -0.257  -0.242  0.00  0.00    +0.111 C 
ATOM     20  C   UNL     1      -1.675  -3.892   0.518  0.00  0.00    +0.234 C 
ATOM     21  C   UNL     1      -3.123   1.445   0.659  0.00  0.00    +0.254 C 
ATOM     35  H   UNL     1      -3.696  -4.074   0.510  0.00  0.00    +0.149 HD
ENDROOT
BRANCH  21  23
ATOM      1  S   UNL     1      -4.126   3.924   1.274  0.00  0.00    -0.092 S 
ATOM     23  C   UNL     1      -3.924   2.599   0.213  0.00  0.00    +0.074 A 
ATOM     25  C   UNL     1      -4.567   2.784  -0.986  0.00  0.00    +0.021 A 
ATOM     27  C   UNL     1      -5.241   4.039  -1.038  0.00  0.00    +0.008 A 
ATOM     28  C   UNL     1      -5.083   4.759   0.125  0.00  0.00    +0.046 A 
ENDBRANCH  21  23
BRANCH  15  10
ATOM      5  O   UNL     1       4.222  -1.451  -1.119  0.00  0.00    -0.275 OA
ATOM     10  N   UNL     1       2.409  -1.875   0.267  0.00  0.00    -0.311 N 
ATOM     22  C   UNL     1       3.627  -1.291  -0.057  0.00  0.00    +0.218 C 
ATOM     36  H   UNL     1       1.970  -1.647   1.155  0.00  0.00    +0.149 HD
BRANCH  22  24
ATOM     24  C   UNL     1       4.142  -0.415   1.068  0.00  0.00    +0.134 C 
BRANCH  24  26
ATOM     26  C   UNL     1       4.937   0.769   0.586  0.00  0.00    +0.003 A 
ATOM     29  C   UNL     1       4.303   1.974   0.312  0.00  0.00    +0.124 A 
ATOM     30  C   UNL     1       6.309   0.632   0.422  0.00  0.00    +0.008 A 
ATOM     31  C   UNL     1       5.055   3.061  -0.134  0.00  0.00    +0.046 A 
ATOM     32  C   UNL     1       7.061   1.719  -0.024  0.00  0.00    +0.001 A 
ATOM     33  C   UNL     1       6.434   2.933  -0.302  0.00  0.00    +0.004 A 
BRANCH  29   6
ATOM      6  O   UNL     1       2.958   2.115   0.472  0.00  0.00    -0.495 OA
ATOM     34  C   UNL     1       2.137   1.814  -0.655  0.00  0.00    +0.277 C 
ENDBRANCH  29   6
ENDBRANCH  24  26
ENDBRANCH  22  24
ENDBRANCH  15  10
TORSDOF 5
