REMARK  Name = 75367175
REMARK  4 active torsions:
REMARK  status: ('A' for Active; 'I' for Inactive)
REMARK    1  A    between atoms: N_4  and  C_10
REMARK    2  A    between atoms: C_7  and  C_12
REMARK    3  A    between atoms: C_10  and  C_13
REMARK    4  A    between atoms: C_14  and  C_18
REMARK                            x       y       z     vdW  Elec       q    Type
REMARK                         _______ _______ _______ _____ _____    ______ ____
ROOT
ATOM      3  O   UNL     1       1.746   4.206   0.325  0.00  0.00    -0.377 OA
ATOM      4  N   UNL     1       1.896   1.347   0.271  0.00  0.00    -0.285 NA
ATOM      7  C   UNL     1       0.589   2.052   0.284  0.00  0.00    +0.149 C 
ATOM      8  C   UNL     1       2.934   2.185   0.897  0.00  0.00    +0.113 C 
ATOM      9  C   UNL     1       0.736   3.451  -0.345  0.00  0.00    +0.186 C 
ATOM     11  C   UNL     1       3.007   3.549   0.225  0.00  0.00    +0.175 C 
ENDROOT
BRANCH   7  12
ATOM      5  N   UNL     1      -1.658   0.913   0.208  0.00  0.00    -0.341 N 
ATOM      6  N   UNL     1      -0.529   0.940  -1.704  0.00  0.00    -0.238 NA
ATOM     12  C   UNL     1      -0.518   1.299  -0.440  0.00  0.00    +0.127 A 
ATOM     14  C   UNL     1      -2.446   0.266  -0.701  0.00  0.00    +0.066 A 
ATOM     15  C   UNL     1      -1.729   0.295  -1.873  0.00  0.00    +0.139 A 
ATOM     27  H   UNL     1      -1.874   1.088   1.181  0.00  0.00    +0.167 HD
BRANCH  14  18
ATOM      2  F   UNL     1      -5.493  -1.731   2.461  0.00  0.00    -0.205 F 
ATOM     18  C   UNL     1      -3.735  -0.288  -0.379  0.00  0.00    +0.003 A 
ATOM     21  C   UNL     1      -3.995  -0.750   0.911  0.00  0.00    +0.048 A 
ATOM     22  C   UNL     1      -4.726  -0.361  -1.359  0.00  0.00    +0.010 A 
ATOM     24  C   UNL     1      -5.245  -1.286   1.222  0.00  0.00    +0.124 A 
ATOM     25  C   UNL     1      -5.976  -0.897  -1.048  0.00  0.00    +0.003 A 
ATOM     26  C   UNL     1      -6.235  -1.359   0.242  0.00  0.00    +0.038 A 
ENDBRANCH  14  18
ENDBRANCH   7  12
BRANCH   4  10
ATOM     10  C   UNL     1       1.835   0.056   0.966  0.00  0.00    +0.120 C 
BRANCH  10  13
ATOM      1  F   UNL     1       5.919  -3.437  -0.727  0.00  0.00    -0.205 F 
ATOM     13  C   UNL     1       2.926  -0.877   0.513  0.00  0.00    -0.033 A 
ATOM     16  C   UNL     1       2.705  -1.741  -0.559  0.00  0.00    +0.008 A 
ATOM     17  C   UNL     1       4.159  -0.878   1.167  0.00  0.00    +0.008 A 
ATOM     19  C   UNL     1       3.716  -2.605  -0.979  0.00  0.00    +0.038 A 
ATOM     20  C   UNL     1       5.170  -1.742   0.748  0.00  0.00    +0.038 A 
ATOM     23  C   UNL     1       4.949  -2.606  -0.325  0.00  0.00    +0.123 A 
ENDBRANCH  10  13
ENDBRANCH   4  10
TORSDOF 4
