REMARK  Name = 75536989
REMARK  5 active torsions:
REMARK  status: ('A' for Active; 'I' for Inactive)
REMARK    1  A    between atoms: O_4  and  C_17
REMARK    2  A    between atoms: O_4  and  C_23
REMARK    3  A    between atoms: N_6  and  C_14
REMARK    4  A    between atoms: C_14  and  C_16
REMARK    5  A    between atoms: C_15  and  C_17
REMARK                            x       y       z     vdW  Elec       q    Type
REMARK                         _______ _______ _______ _____ _____    ______ ____
ROOT
ATOM      2  O   UNL     1       1.249   2.916   0.134  0.00  0.00    -0.252 OA
ATOM      3  O   UNL     1      -5.129   0.388   1.306  0.00  0.00    -0.273 OA
ATOM      5  N   UNL     1      -0.667   1.579  -0.115  0.00  0.00    -0.278 N 
ATOM      6  N   UNL     1       1.205   0.972  -1.200  0.00  0.00    -0.279 N 
ATOM      7  N   UNL     1      -2.907   0.133   0.679  0.00  0.00    -0.296 N 
ATOM      8  C   UNL     1      -1.064   0.436  -0.917  0.00  0.00    +0.112 C 
ATOM      9  C   UNL     1       0.255  -0.092  -1.476  0.00  0.00    +0.133 C 
ATOM     10  C   UNL     1      -1.844  -0.565  -0.068  0.00  0.00    +0.132 C 
ATOM     11  C   UNL     1      -1.651   2.260   0.708  0.00  0.00    +0.128 C 
ATOM     12  C   UNL     1      -2.438   1.239   1.527  0.00  0.00    +0.127 C 
ATOM     13  C   UNL     1       0.668   1.947  -0.337  0.00  0.00    +0.306 C 
ATOM     15  C   UNL     1      -4.261  -0.196   0.652  0.00  0.00    +0.241 C 
ENDROOT
BRANCH   6  14
ATOM     14  C   UNL     1       2.573   0.917  -1.667  0.00  0.00    +0.144 C 
BRANCH  14  16
ATOM      1  F   UNL     1       5.816  -2.245   1.677  0.00  0.00    -0.205 F 
ATOM     16  C   UNL     1       3.438   0.074  -0.775  0.00  0.00    -0.030 A 
ATOM     18  C   UNL     1       4.104   0.656   0.303  0.00  0.00    +0.008 A 
ATOM     19  C   UNL     1       3.574  -1.292  -1.024  0.00  0.00    +0.008 A 
ATOM     20  C   UNL     1       4.908  -0.127   1.131  0.00  0.00    +0.038 A 
ATOM     21  C   UNL     1       4.378  -2.075  -0.196  0.00  0.00    +0.038 A 
ATOM     22  C   UNL     1       5.045  -1.493   0.882  0.00  0.00    +0.123 A 
ENDBRANCH  14  16
ENDBRANCH   6  14
BRANCH  15  17
ATOM     17  C   UNL     1      -4.659  -1.341  -0.246  0.00  0.00    +0.255 C 
BRANCH  17   4
ATOM      4  O   UNL     1      -6.046  -1.514  -0.087  0.00  0.00    -0.374 OA
ATOM     23  C   UNL     1      -6.549  -2.578  -0.892  0.00  0.00    +0.194 C 
ENDBRANCH  17   4
ENDBRANCH  15  17
TORSDOF 4
