REMARK  Name = 40777899
REMARK  10 active torsions:
REMARK  status: ('A' for Active; 'I' for Inactive)
REMARK    1  A    between atoms: O_3  and  C_12
REMARK    2  A    between atoms: O_4  and  C_13
REMARK    3  A    between atoms: O_5  and  C_22
REMARK    4  A    between atoms: O_5  and  C_24
REMARK    5  A    between atoms: N_9  and  C_21
REMARK    6  A    between atoms: N_10  and  C_25
REMARK    7  A    between atoms: C_11  and  C_16
REMARK    8  A    between atoms: C_14  and  C_21
REMARK    9  A    between atoms: C_15  and  C_22
REMARK   10  A    between atoms: C_16  and  C_20
REMARK                            x       y       z     vdW  Elec       q    Type
REMARK                         _______ _______ _______ _____ _____    ______ ____
ROOT
ATOM      2  O   UNL     1      -1.978   1.326  -0.584  0.00  0.00    -0.366 OA
ATOM     11  C   UNL     1      -3.009   0.446  -0.102  0.00  0.00    +0.159 C 
ATOM     12  C   UNL     1      -3.949   1.320   0.710  0.00  0.00    +0.175 C 
ATOM     13  C   UNL     1      -3.909   2.617  -0.072  0.00  0.00    +0.176 C 
ATOM     14  C   UNL     1      -2.444   2.691  -0.489  0.00  0.00    +0.167 C 
ENDROOT
BRANCH  12   3
ATOM      3  O   UNL     1      -5.243   0.763   0.803  0.00  0.00    -0.387 OA
ATOM     31  H   UNL     1      -5.814   1.423   1.231  0.00  0.00    +0.210 HD
ENDBRANCH  12   3
BRANCH  13   4
ATOM      4  O   UNL     1      -4.701   2.507  -1.254  0.00  0.00    -0.387 OA
ATOM     32  H   UNL     1      -4.615   3.345  -1.740  0.00  0.00    +0.210 HD
ENDBRANCH  13   4
BRANCH  11  16
ATOM     16  C   UNL     1      -2.386  -0.680   0.704  0.00  0.00    +0.130 C 
BRANCH  16  20
ATOM      6  O   UNL     1      -1.883  -1.573  -1.444  0.00  0.00    -0.276 OA
ATOM      8  N   UNL     1      -1.164  -2.779   0.395  0.00  0.00    -0.296 N 
ATOM     15  C   UNL     1      -0.621  -3.915  -0.353  0.00  0.00    +0.102 C 
ATOM     17  C   UNL     1      -0.444  -5.000   0.713  0.00  0.00    +0.026 C 
ATOM     18  C   UNL     1      -1.035  -2.983   1.835  0.00  0.00    +0.108 C 
ATOM     19  C   UNL     1      -0.142  -4.206   1.978  0.00  0.00    +0.021 C 
ATOM     20  C   UNL     1      -1.794  -1.711  -0.223  0.00  0.00    +0.218 C 
BRANCH  15  22
ATOM     22  C   UNL     1       0.697  -3.556  -1.035  0.00  0.00    +0.181 C 
BRANCH  22   5
ATOM      5  O   UNL     1       0.407  -2.940  -2.276  0.00  0.00    -0.381 OA
ATOM     24  C   UNL     1       1.592  -2.574  -2.974  0.00  0.00    +0.194 C 
ENDBRANCH  22   5
ENDBRANCH  15  22
ENDBRANCH  16  20
ENDBRANCH  11  16
BRANCH  14  21
ATOM     21  C   UNL     1      -1.571   3.412   0.529  0.00  0.00    +0.140 C 
BRANCH  21   9
ATOM      7  O   UNL     1       0.460   1.471   1.087  0.00  0.00    -0.253 OA
ATOM      9  N   UNL     1      -0.204   3.455   0.101  0.00  0.00    -0.297 N 
ATOM     10  N   UNL     1       1.984   2.772  -0.137  0.00  0.00    -0.269 N 
ATOM     23  C   UNL     1       0.738   2.462   0.415  0.00  0.00    +0.304 C 
ATOM     33  H   UNL     1       0.094   4.241  -0.469  0.00  0.00    +0.150 HD
ATOM     34  H   UNL     1       2.046   3.636  -0.669  0.00  0.00    +0.156 HD
BRANCH  10  25
ATOM      1  F   UNL     1       4.409  -1.067   1.426  0.00  0.00    -0.205 F 
ATOM     25  C   UNL     1       3.183   2.026  -0.046  0.00  0.00    +0.037 A 
ATOM     26  C   UNL     1       3.205   0.824   0.660  0.00  0.00    +0.061 A 
ATOM     27  C   UNL     1       4.343   2.493  -0.665  0.00  0.00    +0.023 A 
ATOM     28  C   UNL     1       4.387   0.088   0.748  0.00  0.00    +0.125 A 
ATOM     29  C   UNL     1       5.525   1.757  -0.577  0.00  0.00    +0.005 A 
ATOM     30  C   UNL     1       5.547   0.555   0.129  0.00  0.00    +0.038 A 
ENDBRANCH  10  25
ENDBRANCH  21   9
ENDBRANCH  14  21
TORSDOF 9
