REMARK  Name = 26744180
REMARK  7 active torsions:
REMARK  status: ('A' for Active; 'I' for Inactive)
REMARK    1  A    between atoms: O_1  and  C_11
REMARK    2  A    between atoms: O_3  and  C_24
REMARK    3  A    between atoms: O_3  and  C_25
REMARK    4  A    between atoms: N_4  and  C_13
REMARK    5  A    between atoms: C_9  and  C_14
REMARK    6  A    between atoms: C_13  and  C_15
REMARK    7  A    between atoms: C_16  and  C_18
REMARK                            x       y       z     vdW  Elec       q    Type
REMARK                         _______ _______ _______ _____ _____    ______ ____
ROOT
ATOM      4  N   UNL     1      -3.159   0.288   0.578  0.00  0.00    -0.282 NA
ATOM      9  C   UNL     1      -2.672   0.807  -0.716  0.00  0.00    +0.149 C 
ATOM     10  C   UNL     1      -2.932   2.324  -0.655  0.00  0.00    +0.061 C 
ATOM     11  C   UNL     1      -3.608   2.554   0.691  0.00  0.00    +0.130 C 
ATOM     12  C   UNL     1      -4.210   1.202   1.022  0.00  0.00    +0.117 C 
ENDROOT
BRANCH   9  14
ATOM      2  O   UNL     1      -0.944  -0.227  -2.101  0.00  0.00    -0.336 OA
ATOM      5  N   UNL     1      -0.163   0.756  -0.246  0.00  0.00    -0.190 NA
ATOM      8  N   UNL     1       0.444  -0.415  -2.115  0.00  0.00    -0.056 NA
ATOM     14  C   UNL     1      -1.217   0.471  -0.968  0.00  0.00    +0.245 A 
ATOM     16  C   UNL     1       0.833   0.191  -0.990  0.00  0.00    +0.202 A 
BRANCH  16  18
ATOM     18  C   UNL     1       2.206   0.253  -0.581  0.00  0.00    +0.023 A 
ATOM     20  C   UNL     1       2.553   0.902   0.604  0.00  0.00    +0.015 A 
ATOM     21  C   UNL     1       3.195  -0.335  -1.369  0.00  0.00    +0.015 A 
ATOM     22  C   UNL     1       3.889   0.963   1.000  0.00  0.00    +0.046 A 
ATOM     23  C   UNL     1       4.531  -0.274  -0.974  0.00  0.00    +0.046 A 
ATOM     24  C   UNL     1       4.878   0.375   0.211  0.00  0.00    +0.120 A 
BRANCH  24   3
ATOM      3  O   UNL     1       6.182   0.434   0.597  0.00  0.00    -0.495 OA
ATOM     25  C   UNL     1       6.467   1.112   1.820  0.00  0.00    +0.277 C 
ENDBRANCH  24   3
ENDBRANCH  16  18
ENDBRANCH   9  14
BRANCH  11   1
ATOM      1  O   UNL     1      -4.598   3.559   0.590  0.00  0.00    -0.390 OA
ATOM     26  H   UNL     1      -4.156   4.376   0.303  0.00  0.00    +0.210 HD
ENDBRANCH  11   1
BRANCH   4  13
ATOM     13  C   UNL     1      -3.626  -1.091   0.505  0.00  0.00    +0.159 C 
BRANCH  13  15
ATOM      6  N   UNL     1      -1.600  -2.110   1.570  0.00  0.00    -0.347 N 
ATOM      7  N   UNL     1      -2.196  -2.967  -0.389  0.00  0.00    -0.239 NA
ATOM     15  C   UNL     1      -2.484  -2.071   0.528  0.00  0.00    +0.121 A 
ATOM     17  C   UNL     1      -0.690  -3.093   1.300  0.00  0.00    +0.104 A 
ATOM     19  C   UNL     1      -1.079  -3.608   0.086  0.00  0.00    +0.130 A 
ATOM     27  H   UNL     1      -1.614  -1.518   2.390  0.00  0.00    +0.167 HD
ENDBRANCH  13  15
ENDBRANCH   4  13
TORSDOF 6
