REMARK  Name = 75536252
REMARK  8 active torsions:
REMARK  status: ('A' for Active; 'I' for Inactive)
REMARK    1  A    between atoms: O_3  and  C_8
REMARK    2  A    between atoms: N_5  and  C_12
REMARK    3  A    between atoms: N_5  and  C_15
REMARK    4  A    between atoms: C_7  and  C_12
REMARK    5  A    between atoms: C_9  and  C_13
REMARK    6  A    between atoms: C_13  and  C_14
REMARK    7  A    between atoms: C_15  and  C_17
REMARK    8  A    between atoms: C_18  and  C_19
REMARK                            x       y       z     vdW  Elec       q    Type
REMARK                         _______ _______ _______ _____ _____    ______ ____
ROOT
ATOM      2  O   UNL     1       3.100  -0.466   0.863  0.00  0.00    -0.369 OA
ATOM      7  C   UNL     1       3.772   0.800   0.819  0.00  0.00    +0.161 C 
ATOM      8  C   UNL     1       5.279   0.624   0.590  0.00  0.00    +0.145 C 
ATOM      9  C   UNL     1       3.299  -1.300  -0.281  0.00  0.00    +0.125 C 
ATOM     10  C   UNL     1       5.584  -0.303  -0.584  0.00  0.00    +0.036 C 
ATOM     11  C   UNL     1       4.784  -1.598  -0.479  0.00  0.00    +0.034 C 
ENDROOT
BRANCH   8   3
ATOM      3  O   UNL     1       5.859   0.047   1.762  0.00  0.00    -0.389 OA
ATOM     31  H   UNL     1       6.819  -0.013   1.616  0.00  0.00    +0.210 HD
ENDBRANCH   8   3
BRANCH   7  12
ATOM     12  C   UNL     1       3.119   1.735  -0.196  0.00  0.00    +0.115 C 
BRANCH  12   5
ATOM      5  N   UNL     1       1.699   1.888   0.078  0.00  0.00    -0.309 NA
ATOM     30  H   UNL     1       1.247   0.974   0.037  0.00  0.00    +0.122 HD
BRANCH   5  15
ATOM     15  C   UNL     1       1.075   2.788  -0.883  0.00  0.00    +0.116 C 
BRANCH  15  17
ATOM     17  C   UNL     1      -0.394   2.971  -0.609  0.00  0.00    -0.034 A 
ATOM     20  C   UNL     1      -1.326   2.116  -1.198  0.00  0.00    +0.005 A 
ATOM     21  C   UNL     1      -0.823   3.995   0.236  0.00  0.00    +0.005 A 
ATOM     22  C   UNL     1      -2.687   2.285  -0.943  0.00  0.00    +0.000 A 
ATOM     23  C   UNL     1      -2.184   4.164   0.491  0.00  0.00    +0.000 A 
ATOM     26  C   UNL     1      -3.116   3.309  -0.099  0.00  0.00    +0.000 A 
ENDBRANCH  15  17
ENDBRANCH   5  15
ENDBRANCH  12   5
ENDBRANCH   7  12
BRANCH   9  13
ATOM     13  C   UNL     1       2.513  -2.585  -0.054  0.00  0.00    +0.090 C 
BRANCH  13  14
ATOM      4  O   UNL     1      -0.813  -2.337  -1.422  0.00  0.00    -0.354 OA
ATOM      6  N   UNL     1       0.547  -2.599  -1.535  0.00  0.00    -0.083 NA
ATOM     14  C   UNL     1       1.042  -2.392  -0.312  0.00  0.00    +0.087 A 
ATOM     16  C   UNL     1       0.052  -2.002   0.606  0.00  0.00    +0.076 A 
ATOM     18  C   UNL     1      -1.096  -1.982  -0.142  0.00  0.00    +0.167 A 
BRANCH  18  19
ATOM      1  F   UNL     1      -6.432  -0.819   0.917  0.00  0.00    -0.205 F 
ATOM     19  C   UNL     1      -2.471  -1.681   0.131  0.00  0.00    +0.020 A 
ATOM     24  C   UNL     1      -2.862  -1.310   1.417  0.00  0.00    +0.014 A 
ATOM     25  C   UNL     1      -3.418  -1.762  -0.890  0.00  0.00    +0.014 A 
ATOM     27  C   UNL     1      -4.200  -1.018   1.683  0.00  0.00    +0.039 A 
ATOM     28  C   UNL     1      -4.756  -1.470  -0.625  0.00  0.00    +0.039 A 
ATOM     29  C   UNL     1      -5.147  -1.099   0.662  0.00  0.00    +0.123 A 
ENDBRANCH  18  19
ENDBRANCH  13  14
ENDBRANCH   9  13
TORSDOF 8
