REMARK  Name = 11883006
REMARK  14 active torsions:
REMARK  status: ('A' for Active; 'I' for Inactive)
REMARK    1  A    between atoms: O_2  and  C_14
REMARK    2  A    between atoms: O_3  and  C_19
REMARK    3  A    between atoms: N_7  and  C_25
REMARK    4  A    between atoms: N_7  and  C_26
REMARK    5  A    between atoms: C_9  and  C_17
REMARK    6  A    between atoms: C_11  and  C_19
REMARK    7  A    between atoms: C_11  and  C_20
REMARK    8  A    between atoms: C_12  and  C_22
REMARK    9  A    between atoms: C_22  and  C_23
REMARK   10  A    between atoms: C_25  and  C_29
REMARK   11  A    between atoms: C_27  and  C_28
REMARK   12  A    between atoms: C_28  and  C_30
REMARK   13  A    between atoms: C_28  and  C_31
REMARK   14  A    between atoms: C_28  and  C_32
REMARK                            x       y       z     vdW  Elec       q    Type
REMARK                         _______ _______ _______ _____ _____    ______ ____
ROOT
ATOM      1  S   UNL     1      -1.025   3.751  -0.279  0.00  0.00    -0.057 S 
ATOM      5  O   UNL     1       3.425   2.476   0.050  0.00  0.00    -0.275 OA
ATOM      6  N   UNL     1       0.577   1.741   0.015  0.00  0.00    -0.229 NA
ATOM      8  N   UNL     1       1.590   3.919  -0.187  0.00  0.00    -0.264 N 
ATOM      9  C   UNL     1      -2.524  -0.489   0.540  0.00  0.00    -0.019 C 
ATOM     10  C   UNL     1      -3.430   0.410  -0.412  0.00  0.00    +0.011 C 
ATOM     11  C   UNL     1      -4.958   0.034  -0.511  0.00  0.00    +0.021 C 
ATOM     12  C   UNL     1      -0.995  -0.227   0.159  0.00  0.00    +0.054 C 
ATOM     13  C   UNL     1      -2.841  -1.986   0.290  0.00  0.00    +0.010 C 
ATOM     14  C   UNL     1      -5.096  -1.501  -0.715  0.00  0.00    +0.123 C 
ATOM     15  C   UNL     1      -3.171   1.927  -0.176  0.00  0.00    +0.049 C 
ATOM     16  C   UNL     1      -4.326  -2.316   0.319  0.00  0.00    +0.032 C 
ATOM     17  C   UNL     1      -2.740  -0.180   2.043  0.00  0.00    +0.012 C 
ATOM     18  C   UNL     1      -0.715   1.248   0.026  0.00  0.00    +0.058 A 
ATOM     20  C   UNL     1      -5.570   0.723  -1.763  0.00  0.00    +0.016 C 
ATOM     21  C   UNL     1      -1.705   2.195  -0.141  0.00  0.00    +0.015 A 
ATOM     24  C   UNL     1       0.535   3.047  -0.133  0.00  0.00    +0.165 A 
ATOM     27  C   UNL     1       2.960   3.604  -0.096  0.00  0.00    +0.224 C 
ATOM     40  H   UNL     1       1.322   4.891  -0.307  0.00  0.00    +0.157 HD
ENDROOT
BRANCH  27  28
ATOM     28  C   UNL     1       3.893   4.838  -0.193  0.00  0.00    +0.039 C 
ATOM     30  C   UNL     1       3.570   5.816   0.952  0.00  0.00    +0.020 C 
ATOM     31  C   UNL     1       3.672   5.566  -1.528  0.00  0.00    +0.020 C 
ATOM     32  C   UNL     1       5.361   4.405  -0.061  0.00  0.00    +0.020 C 
ENDBRANCH  27  28
BRANCH  14   2
ATOM      2  O   UNL     1      -6.468  -1.893  -0.679  0.00  0.00    -0.391 OA
ATOM     38  H   UNL     1      -6.506  -2.848  -0.857  0.00  0.00    +0.210 HD
ENDBRANCH  14   2
BRANCH  11  19
ATOM     19  C   UNL     1      -5.814   0.510   0.684  0.00  0.00    +0.165 C 
BRANCH  19   3
ATOM      3  O   UNL     1      -7.145   0.112   0.447  0.00  0.00    -0.394 OA
ATOM     39  H   UNL     1      -7.679   0.423   1.198  0.00  0.00    +0.209 HD
ENDBRANCH  19   3
ENDBRANCH  11  19
BRANCH  12  22
ATOM     22  C   UNL     1       0.020  -0.910   1.084  0.00  0.00    +0.106 C 
BRANCH  22  23
ATOM      4  O   UNL     1       1.506  -0.874  -0.797  0.00  0.00    -0.276 OA
ATOM      7  N   UNL     1       2.315  -1.817   1.162  0.00  0.00    -0.300 N 
ATOM     23  C   UNL     1       1.336  -1.191   0.384  0.00  0.00    +0.216 C 
ATOM     26  C   UNL     1       2.091  -2.182   2.555  0.00  0.00    +0.132 C 
BRANCH   7  25
ATOM     25  C   UNL     1       3.636  -2.154   0.636  0.00  0.00    +0.142 C 
BRANCH  25  29
ATOM     29  C   UNL     1       3.655  -3.509  -0.011  0.00  0.00    -0.030 A 
ATOM     33  C   UNL     1       3.956  -4.640   0.747  0.00  0.00    +0.005 A 
ATOM     34  C   UNL     1       3.370  -3.636  -1.371  0.00  0.00    +0.005 A 
ATOM     35  C   UNL     1       3.974  -5.899   0.146  0.00  0.00    +0.000 A 
ATOM     36  C   UNL     1       3.387  -4.894  -1.972  0.00  0.00    +0.000 A 
ATOM     37  C   UNL     1       3.689  -6.026  -1.214  0.00  0.00    +0.000 A 
ENDBRANCH  25  29
ENDBRANCH   7  25
ENDBRANCH  22  23
ENDBRANCH  12  22
TORSDOF 8
