REMARK  Name = 26744782
REMARK  5 active torsions:
REMARK  status: ('A' for Active; 'I' for Inactive)
REMARK    1  A    between atoms: N_5  and  C_16
REMARK    2  A    between atoms: C_11  and  C_17
REMARK    3  A    between atoms: C_16  and  C_18
REMARK    4  A    between atoms: C_20  and  C_22
REMARK    5  A    between atoms: C_28  and  C_31
REMARK                            x       y       z     vdW  Elec       q    Type
REMARK                         _______ _______ _______ _____ _____    ______ ____
ROOT
ATOM      5  N   UNL     1       2.780   0.006   0.321  0.00  0.00    -0.280 NA
ATOM      6  N   UNL     1       5.741   1.760  -1.169  0.00  0.00    -0.347 N 
ATOM      7  N   UNL     1       4.346   3.494  -1.390  0.00  0.00    -0.240 NA
ATOM     11  C   UNL     1       2.141   1.278   0.804  0.00  0.00    +0.152 C 
ATOM     12  C   UNL     1       2.358   2.473  -0.191  0.00  0.00    +0.086 C 
ATOM     13  C   UNL     1       4.255   0.145   0.146  0.00  0.00    +0.140 C 
ATOM     14  C   UNL     1       4.576   1.401  -0.562  0.00  0.00    +0.053 A 
ATOM     15  C   UNL     1       3.743   2.479  -0.704  0.00  0.00    +0.065 A 
ATOM     19  C   UNL     1       5.553   3.031  -1.654  0.00  0.00    +0.197 A 
ATOM     32  H   UNL     1       6.583   1.206  -1.247  0.00  0.00    +0.167 HD
ENDROOT
BRANCH  11  17
ATOM      4  O   UNL     1       0.233   1.394   2.342  0.00  0.00    -0.336 OA
ATOM      8  N   UNL     1      -0.324   0.852   0.241  0.00  0.00    -0.190 NA
ATOM      9  N   UNL     1      -1.157   1.224   2.339  0.00  0.00    -0.056 NA
ATOM     17  C   UNL     1       0.644   1.157   1.069  0.00  0.00    +0.245 A 
ATOM     20  C   UNL     1      -1.410   0.906   1.066  0.00  0.00    +0.202 A 
BRANCH  20  22
ATOM     22  C   UNL     1      -2.734   0.637   0.586  0.00  0.00    +0.022 A 
ATOM     25  C   UNL     1      -2.937   0.311  -0.755  0.00  0.00    +0.012 A 
ATOM     26  C   UNL     1      -3.820   0.701   1.460  0.00  0.00    +0.012 A 
ATOM     28  C   UNL     1      -5.311   0.114  -0.348  0.00  0.00    +0.055 A 
ATOM     29  C   UNL     1      -4.225   0.049  -1.222  0.00  0.00    +0.013 A 
ATOM     30  C   UNL     1      -5.107   0.440   0.993  0.00  0.00    +0.013 A 
BRANCH  28  31
ATOM      1  F   UNL     1      -7.293  -1.218  -0.221  0.00  0.00    -0.166 F 
ATOM      2  F   UNL     1      -6.712  -0.469  -2.178  0.00  0.00    -0.166 F 
ATOM      3  F   UNL     1      -7.549   0.883  -0.694  0.00  0.00    -0.166 F 
ATOM     31  C   UNL     1      -6.688  -0.166  -0.847  0.00  0.00    +0.417 C 
ENDBRANCH  28  31
ENDBRANCH  20  22
ENDBRANCH  11  17
BRANCH   5  16
ATOM     16  C   UNL     1       2.532  -1.123   1.228  0.00  0.00    +0.141 C 
BRANCH  16  18
ATOM     10  N   UNL     1       3.755  -3.165   0.725  0.00  0.00    -0.259 NA
ATOM     18  C   UNL     1       2.630  -2.446   0.517  0.00  0.00    +0.055 A 
ATOM     21  C   UNL     1       1.587  -2.857  -0.298  0.00  0.00    +0.024 A 
ATOM     23  C   UNL     1       1.707  -4.084  -0.940  0.00  0.00    +0.003 A 
ATOM     24  C   UNL     1       3.837  -4.353   0.085  0.00  0.00    +0.111 A 
ATOM     27  C   UNL     1       2.850  -4.853  -0.750  0.00  0.00    +0.020 A 
ENDBRANCH  16  18
ENDBRANCH   5  16
TORSDOF 5
