REMARK  Name = 75536637
REMARK  6 active torsions:
REMARK  status: ('A' for Active; 'I' for Inactive)
REMARK    1  A    between atoms: O_5  and  C_11
REMARK    2  A    between atoms: N_7  and  C_9
REMARK    3  A    between atoms: N_7  and  C_10
REMARK    4  A    between atoms: N_8  and  C_19
REMARK    5  A    between atoms: C_14  and  C_19
REMARK    6  A    between atoms: C_20  and  C_21
REMARK                            x       y       z     vdW  Elec       q    Type
REMARK                         _______ _______ _______ _____ _____    ______ ____
ROOT
ATOM      4  O   UNL     1       0.235   0.235  -1.014  0.00  0.00    -0.371 OA
ATOM     10  C   UNL     1      -1.883  -0.512  -0.241  0.00  0.00    +0.111 C 
ATOM     11  C   UNL     1      -0.900  -1.666  -0.184  0.00  0.00    +0.164 C 
ATOM     14  C   UNL     1       0.428  -0.921  -0.182  0.00  0.00    +0.165 C 
ATOM     15  C   UNL     1      -1.177   0.437  -1.197  0.00  0.00    +0.181 C 
ENDROOT
BRANCH  11   5
ATOM      5  O   UNL     1      -1.059  -2.462   0.975  0.00  0.00    -0.388 OA
ATOM     28  H   UNL     1      -0.979  -1.886   1.755  0.00  0.00    +0.210 HD
ENDBRANCH  11   5
BRANCH  10   7
ATOM      7  N   UNL     1      -3.208  -0.896  -0.701  0.00  0.00    -0.306 NA
ATOM     27  H   UNL     1      -3.494  -1.768  -0.259  0.00  0.00    +0.123 HD
BRANCH   7   9
ATOM      1  F   UNL     1      -7.752   2.000   0.689  0.00  0.00    -0.206 F 
ATOM      2  F   UNL     1      -7.530  -0.163   0.651  0.00  0.00    -0.206 F 
ATOM      9  C   UNL     1      -4.182   0.155  -0.409  0.00  0.00    +0.054 C 
ATOM     12  C   UNL     1      -5.381   0.029  -1.357  0.00  0.00    +0.024 C 
ATOM     13  C   UNL     1      -4.620   0.065   1.058  0.00  0.00    +0.024 C 
ATOM     16  C   UNL     1      -6.454   1.068  -1.034  0.00  0.00    +0.077 C 
ATOM     17  C   UNL     1      -5.693   1.103   1.381  0.00  0.00    +0.077 C 
ATOM     18  C   UNL     1      -6.870   1.003   0.426  0.00  0.00    +0.249 C 
ENDBRANCH   7   9
ENDBRANCH  10   7
BRANCH  14  19
ATOM     19  C   UNL     1       1.583  -1.750  -0.716  0.00  0.00    +0.138 C 
BRANCH  19   8
ATOM      6  O   UNL     1       3.484  -1.628   1.433  0.00  0.00    -0.270 OA
ATOM      8  N   UNL     1       2.810  -1.008  -0.699  0.00  0.00    -0.309 N 
ATOM     20  C   UNL     1       3.675  -1.006   0.391  0.00  0.00    +0.244 C 
ATOM     29  H   UNL     1       2.994  -0.416  -1.502  0.00  0.00    +0.149 HD
BRANCH  20  21
ATOM      3  F   UNL     1       8.278   2.171  -0.101  0.00  0.00    -0.205 F 
ATOM     21  C   UNL     1       4.893  -0.165   0.261  0.00  0.00    +0.037 A 
ATOM     22  C   UNL     1       5.505   0.356   1.400  0.00  0.00    +0.016 A 
ATOM     23  C   UNL     1       5.424   0.103  -1.001  0.00  0.00    +0.016 A 
ATOM     24  C   UNL     1       6.648   1.146   1.279  0.00  0.00    +0.039 A 
ATOM     25  C   UNL     1       6.567   0.893  -1.123  0.00  0.00    +0.039 A 
ATOM     26  C   UNL     1       7.179   1.414   0.017  0.00  0.00    +0.123 A 
ENDBRANCH  20  21
ENDBRANCH  19   8
ENDBRANCH  14  19
TORSDOF 6
