REMARK  Name = 45783446
REMARK  11 active torsions:
REMARK  status: ('A' for Active; 'I' for Inactive)
REMARK    1  A    between atoms: O_2  and  C_19
REMARK    2  A    between atoms: O_2  and  C_26
REMARK    3  A    between atoms: O_3  and  C_24
REMARK    4  A    between atoms: O_3  and  C_28
REMARK    5  A    between atoms: O_4  and  C_29
REMARK    6  A    between atoms: O_4  and  C_30
REMARK    7  A    between atoms: N_5  and  C_13
REMARK    8  A    between atoms: C_9  and  C_14
REMARK    9  A    between atoms: C_13  and  C_15
REMARK   10  A    between atoms: C_18  and  C_22
REMARK   11  A    between atoms: C_28  and  C_29
REMARK                            x       y       z     vdW  Elec       q    Type
REMARK                         _______ _______ _______ _____ _____    ______ ____
ROOT
ATOM      1  O   UNL     1      -2.687   2.339  -0.250  0.00  0.00    -0.336 OA
ATOM      6  N   UNL     1      -1.142   0.915   0.526  0.00  0.00    -0.189 NA
ATOM      7  N   UNL     1      -1.456   2.797  -0.737  0.00  0.00    -0.054 NA
ATOM     14  C   UNL     1      -2.412   1.229   0.483  0.00  0.00    +0.245 A 
ATOM     18  C   UNL     1      -0.595   1.906  -0.237  0.00  0.00    +0.221 A 
ENDROOT
BRANCH  18  22
ATOM      8  N   UNL     1       1.227   3.009  -1.251  0.00  0.00    -0.252 NA
ATOM     22  C   UNL     1       0.817   1.978  -0.479  0.00  0.00    +0.115 A 
ATOM     23  C   UNL     1       1.669   1.030   0.064  0.00  0.00    +0.077 A 
ATOM     24  C   UNL     1       3.028   1.147  -0.202  0.00  0.00    +0.124 A 
ATOM     25  C   UNL     1       2.555   3.091  -1.489  0.00  0.00    +0.115 A 
ATOM     27  C   UNL     1       3.488   2.194  -0.993  0.00  0.00    +0.065 A 
BRANCH  24   3
ATOM      3  O   UNL     1       3.905   0.241   0.308  0.00  0.00    -0.490 OA
BRANCH   3  28
ATOM     28  C   UNL     1       3.562  -0.365   1.554  0.00  0.00    +0.257 C 
BRANCH  28  29
ATOM     29  C   UNL     1       4.835  -0.730   2.294  0.00  0.00    +0.200 C 
BRANCH  29   4
ATOM      4  O   UNL     1       5.576  -1.658   1.512  0.00  0.00    -0.380 OA
ATOM     30  C   UNL     1       6.794  -2.020   2.149  0.00  0.00    +0.194 C 
ENDBRANCH  29   4
ENDBRANCH  28  29
ENDBRANCH   3  28
ENDBRANCH  24   3
ENDBRANCH  18  22
BRANCH  14   9
ATOM      5  N   UNL     1      -3.363  -0.910   1.329  0.00  0.00    -0.287 NA
ATOM      9  C   UNL     1      -3.594   0.534   1.126  0.00  0.00    +0.146 C 
ATOM     10  C   UNL     1      -3.913   1.081   2.530  0.00  0.00    +0.030 C 
ATOM     11  C   UNL     1      -3.898  -0.136   3.443  0.00  0.00    +0.017 C 
ATOM     12  C   UNL     1      -4.153  -1.294   2.499  0.00  0.00    +0.085 C 
BRANCH   5  13
ATOM     13  C   UNL     1      -3.690  -1.714   0.159  0.00  0.00    +0.120 C 
BRANCH  13  15
ATOM     15  C   UNL     1      -2.594  -1.673  -0.873  0.00  0.00    -0.030 A 
ATOM     16  C   UNL     1      -1.306  -2.093  -0.540  0.00  0.00    +0.050 A 
ATOM     17  C   UNL     1      -2.867  -1.214  -2.162  0.00  0.00    +0.005 A 
ATOM     19  C   UNL     1      -0.291  -2.054  -1.496  0.00  0.00    +0.120 A 
ATOM     20  C   UNL     1      -1.852  -1.175  -3.118  0.00  0.00    +0.004 A 
ATOM     21  C   UNL     1      -0.564  -1.596  -2.785  0.00  0.00    +0.045 A 
BRANCH  19   2
ATOM      2  O   UNL     1       0.965  -2.463  -1.171  0.00  0.00    -0.495 OA
ATOM     26  C   UNL     1       1.956  -2.396  -2.196  0.00  0.00    +0.277 C 
ENDBRANCH  19   2
ENDBRANCH  13  15
ENDBRANCH   5  13
ENDBRANCH  14   9
TORSDOF 9
