REMARK  Name = 75536901
REMARK  3 active torsions:
REMARK  status: ('A' for Active; 'I' for Inactive)
REMARK    1  A    between atoms: O_3  and  C_8
REMARK    2  A    between atoms: O_3  and  C_15
REMARK    3  A    between atoms: C_13  and  C_14
REMARK                            x       y       z     vdW  Elec       q    Type
REMARK                         _______ _______ _______ _____ _____    ______ ____
ROOT
ATOM      2  O   UNL     1      -1.377  -2.707  -1.116  0.00  0.00    -0.375 OA
ATOM      4  O   UNL     1       3.158  -2.393   0.507  0.00  0.00    -0.270 OA
ATOM      5  N   UNL     1       0.998  -1.485   0.524  0.00  0.00    -0.292 N 
ATOM      8  C   UNL     1      -1.295  -0.516  -0.045  0.00  0.00    +0.218 C 
ATOM      9  C   UNL     1       0.137  -0.298   0.452  0.00  0.00    +0.155 C 
ATOM     10  C   UNL     1       0.362  -2.801   0.604  0.00  0.00    +0.136 C 
ATOM     11  C   UNL     1      -1.364  -1.303  -1.353  0.00  0.00    +0.206 C 
ATOM     12  C   UNL     1      -0.115  -3.264  -0.767  0.00  0.00    +0.179 C 
ATOM     13  C   UNL     1       2.400  -1.424   0.482  0.00  0.00    +0.247 C 
ENDROOT
BRANCH  13  14
ATOM      1  F   UNL     1       4.174   2.271  -2.112  0.00  0.00    -0.205 F 
ATOM     14  C   UNL     1       3.039  -0.101   0.402  0.00  0.00    +0.040 A 
ATOM     16  C   UNL     1       3.309   0.469  -0.842  0.00  0.00    +0.051 A 
ATOM     17  C   UNL     1       3.375   0.583   1.571  0.00  0.00    +0.013 A 
ATOM     18  C   UNL     1       3.916   1.723  -0.918  0.00  0.00    +0.124 A 
ATOM     19  C   UNL     1       3.982   1.836   1.495  0.00  0.00    +0.004 A 
ATOM     21  C   UNL     1       4.252   2.407   0.251  0.00  0.00    +0.038 A 
ENDBRANCH  13  14
BRANCH   8   3
ATOM      3  O   UNL     1      -1.861   0.779  -0.250  0.00  0.00    -0.468 OA
BRANCH   3  15
ATOM      6  N   UNL     1      -3.879  -0.199   0.364  0.00  0.00    -0.219 NA
ATOM      7  N   UNL     1      -5.152   2.275   0.008  0.00  0.00    -0.256 NA
ATOM     15  C   UNL     1      -3.205   0.901  -0.027  0.00  0.00    +0.234 A 
ATOM     20  C   UNL     1      -3.830   2.116  -0.202  0.00  0.00    +0.177 A 
ATOM     22  C   UNL     1      -5.201  -0.040   0.574  0.00  0.00    +0.134 A 
ATOM     23  C   UNL     1      -5.826   1.175   0.399  0.00  0.00    +0.130 A 
ENDBRANCH   3  15
ENDBRANCH   8   3
TORSDOF 3
