REMARK  Name = 26744527
REMARK  10 active torsions:
REMARK  status: ('A' for Active; 'I' for Inactive)
REMARK    1  A    between atoms: S_1  and  C_21
REMARK    2  A    between atoms: S_1  and  C_25
REMARK    3  A    between atoms: O_2  and  C_13
REMARK    4  A    between atoms: O_6  and  C_28
REMARK    5  A    between atoms: N_8  and  C_15
REMARK    6  A    between atoms: C_11  and  C_16
REMARK    7  A    between atoms: C_15  and  C_17
REMARK    8  A    between atoms: C_18  and  C_21
REMARK    9  A    between atoms: C_24  and  C_28
REMARK   10  A    between atoms: C_31  and  C_32
REMARK                            x       y       z     vdW  Elec       q    Type
REMARK                         _______ _______ _______ _____ _____    ______ ____
ROOT
ATOM      8  N   UNL     1      -3.865   0.566   0.698  0.00  0.00    -0.285 NA
ATOM     11  C   UNL     1      -3.663   1.121  -0.656  0.00  0.00    +0.149 C 
ATOM     12  C   UNL     1      -4.181   2.568  -0.571  0.00  0.00    +0.061 C 
ATOM     13  C   UNL     1      -4.694   2.719   0.856  0.00  0.00    +0.130 C 
ATOM     14  C   UNL     1      -4.992   1.293   1.279  0.00  0.00    +0.116 C 
ENDROOT
BRANCH  11  16
ATOM      3  O   UNL     1      -1.984   0.364  -2.264  0.00  0.00    -0.336 OA
ATOM      9  N   UNL     1      -1.145   1.531  -0.547  0.00  0.00    -0.193 NA
ATOM     10  N   UNL     1      -0.601   0.424  -2.473  0.00  0.00    -0.060 NA
ATOM     16  C   UNL     1      -2.220   1.041  -1.110  0.00  0.00    +0.245 A 
ATOM     18  C   UNL     1      -0.177   1.128  -1.420  0.00  0.00    +0.193 A 
BRANCH  18  21
ATOM     21  C   UNL     1       1.241   1.444  -1.215  0.00  0.00    +0.251 C 
BRANCH  21   1
ATOM      1  S   UNL     1       1.866   0.427   0.094  0.00  0.00    +0.004 S 
ATOM      4  O   UNL     1       1.759  -0.955  -0.336  0.00  0.00    -0.169 OA
ATOM      5  O   UNL     1       1.263   0.859   1.341  0.00  0.00    -0.169 OA
BRANCH   1  25
ATOM     25  C   UNL     1       3.580   0.846   0.173  0.00  0.00    +0.089 A 
ATOM     26  C   UNL     1       4.006   1.884   1.002  0.00  0.00    +0.027 A 
ATOM     27  C   UNL     1       4.507   0.141  -0.594  0.00  0.00    +0.027 A 
ATOM     29  C   UNL     1       5.359   2.217   1.063  0.00  0.00    +0.005 A 
ATOM     30  C   UNL     1       5.861   0.474  -0.533  0.00  0.00    +0.005 A 
ATOM     31  C   UNL     1       6.287   1.512   0.295  0.00  0.00    -0.050 A 
ATOM     32  C   UNL     1       7.733   1.868   0.361  0.00  0.00    +0.044 C 
ENDBRANCH   1  25
ENDBRANCH  21   1
ENDBRANCH  18  21
ENDBRANCH  11  16
BRANCH  13   2
ATOM      2  O   UNL     1      -5.854   3.529   0.888  0.00  0.00    -0.390 OA
ATOM     33  H   UNL     1      -5.610   4.402   0.536  0.00  0.00    +0.210 HD
ENDBRANCH  13   2
BRANCH   8  15
ATOM     15  C   UNL     1      -4.081  -0.875   0.702  0.00  0.00    +0.120 C 
BRANCH  15  17
ATOM     17  C   UNL     1      -2.788  -1.636   0.570  0.00  0.00    -0.033 A 
ATOM     19  C   UNL     1      -1.775  -1.458   1.512  0.00  0.00    +0.006 A 
ATOM     20  C   UNL     1      -2.604  -2.519  -0.494  0.00  0.00    +0.006 A 
ATOM     22  C   UNL     1      -0.578  -2.163   1.390  0.00  0.00    +0.015 A 
ATOM     23  C   UNL     1      -1.407  -3.224  -0.616  0.00  0.00    +0.015 A 
ATOM     24  C   UNL     1      -0.394  -3.046   0.326  0.00  0.00    +0.059 A 
BRANCH  24  28
ATOM      7  O   UNL     1       1.815  -3.703   0.972  0.00  0.00    -0.245 OA
ATOM     28  C   UNL     1       0.854  -3.782   0.199  0.00  0.00    +0.337 C 
BRANCH  28   6
ATOM      6  O   UNL     1       0.869  -4.598  -0.891  0.00  0.00    -0.477 OA
ATOM     34  H   UNL     1       1.714  -5.089  -0.967  0.00  0.00    +0.295 HD
ENDBRANCH  28   6
ENDBRANCH  24  28
ENDBRANCH  15  17
ENDBRANCH   8  15
TORSDOF 9
