REMARK  Name = 45783302
REMARK  6 active torsions:
REMARK  status: ('A' for Active; 'I' for Inactive)
REMARK    1  A    between atoms: N_4  and  C_14
REMARK    2  A    between atoms: N_9  and  C_29
REMARK    3  A    between atoms: C_10  and  C_15
REMARK    4  A    between atoms: C_14  and  C_16
REMARK    5  A    between atoms: C_17  and  C_20
REMARK    6  A    between atoms: C_32  and  C_33
REMARK                            x       y       z     vdW  Elec       q    Type
REMARK                         _______ _______ _______ _____ _____    ______ ____
ROOT
ATOM      4  N   UNL     1      -3.834  -0.476  -1.367  0.00  0.00    -0.287 NA
ATOM     10  C   UNL     1      -4.071  -1.000  -0.006  0.00  0.00    +0.146 C 
ATOM     11  C   UNL     1      -4.636  -2.415  -0.225  0.00  0.00    +0.030 C 
ATOM     12  C   UNL     1      -4.739  -2.574  -1.735  0.00  0.00    +0.017 C 
ATOM     13  C   UNL     1      -4.798  -1.146  -2.240  0.00  0.00    +0.085 C 
ENDROOT
BRANCH  10  15
ATOM      1  O   UNL     1      -2.999  -0.894   2.188  0.00  0.00    -0.336 OA
ATOM      5  N   UNL     1      -1.564  -1.075   0.477  0.00  0.00    -0.190 NA
ATOM      7  N   UNL     1      -1.718  -0.911   2.754  0.00  0.00    -0.056 NA
ATOM     15  C   UNL     1      -2.818  -0.996   0.845  0.00  0.00    +0.245 A 
ATOM     17  C   UNL     1      -0.927  -1.019   1.682  0.00  0.00    +0.202 A 
BRANCH  17  20
ATOM      2  O   UNL     1       5.081  -1.807  -2.605  0.00  0.00    -0.377 OA
ATOM      6  N   UNL     1       3.422  -1.352  -0.383  0.00  0.00    -0.311 N 
ATOM      8  N   UNL     1       3.290  -1.181   1.974  0.00  0.00    -0.240 NA
ATOM     20  C   UNL     1       0.503  -1.075   1.781  0.00  0.00    +0.027 A 
ATOM     21  C   UNL     1       3.213  -2.529  -1.237  0.00  0.00    +0.134 C 
ATOM     22  C   UNL     1       4.771  -0.778  -0.430  0.00  0.00    +0.134 C 
ATOM     25  C   UNL     1       2.655  -1.237   0.782  0.00  0.00    +0.122 A 
ATOM     26  C   UNL     1       3.721  -2.240  -2.645  0.00  0.00    +0.178 C 
ATOM     27  C   UNL     1       5.197  -0.583  -1.881  0.00  0.00    +0.178 C 
ATOM     28  C   UNL     1       1.279  -1.188   0.633  0.00  0.00    +0.055 A 
ATOM     30  C   UNL     1       1.119  -1.015   3.026  0.00  0.00    +0.031 A 
ATOM     31  C   UNL     1       2.503  -1.072   3.068  0.00  0.00    +0.113 A 
ENDBRANCH  17  20
ENDBRANCH  10  15
BRANCH   4  14
ATOM     14  C   UNL     1      -3.937   0.975  -1.449  0.00  0.00    +0.120 C 
BRANCH  14  16
ATOM     16  C   UNL     1      -2.686   1.654  -0.958  0.00  0.00    -0.033 A 
ATOM     18  C   UNL     1      -2.752   2.556   0.103  0.00  0.00    +0.007 A 
ATOM     19  C   UNL     1      -1.460   1.382  -1.566  0.00  0.00    +0.007 A 
ATOM     23  C   UNL     1      -1.594   3.186   0.558  0.00  0.00    +0.023 A 
ATOM     24  C   UNL     1      -0.301   2.012  -1.112  0.00  0.00    +0.023 A 
ATOM     29  C   UNL     1      -0.368   2.914  -0.050  0.00  0.00    +0.033 A 
BRANCH  29   9
ATOM      3  O   UNL     1       2.480   2.685  -0.999  0.00  0.00    -0.276 OA
ATOM      9  N   UNL     1       0.791   3.543   0.404  0.00  0.00    -0.286 N 
ATOM     32  C   UNL     1       2.100   3.398  -0.076  0.00  0.00    +0.214 C 
ATOM     33  C   UNL     1       3.075   4.258   0.688  0.00  0.00    +0.109 C 
ATOM     34  H   UNL     1       0.660   4.187   1.182  0.00  0.00    +0.155 HD
ENDBRANCH  29   9
ENDBRANCH  14  16
ENDBRANCH   4  14
TORSDOF 5
