REMARK  Name = 45360831
REMARK  6 active torsions:
REMARK  status: ('A' for Active; 'I' for Inactive)
REMARK    1  A    between atoms: N_4  and  C_16
REMARK    2  A    between atoms: N_7  and  C_19
REMARK    3  A    between atoms: C_11  and  C_15
REMARK    4  A    between atoms: C_15  and  C_17
REMARK    5  A    between atoms: C_17  and  C_18
REMARK    6  A    between atoms: C_19  and  C_20
REMARK                            x       y       z     vdW  Elec       q    Type
REMARK                         _______ _______ _______ _____ _____    ______ ____
ROOT
ATOM      1  O   UNL     1      -3.677  -2.625   1.020  0.00  0.00    -0.274 OA
ATOM      4  N   UNL     1      -2.714   1.070   0.223  0.00  0.00    -0.296 NA
ATOM      5  N   UNL     1      -5.648  -1.099   0.016  0.00  0.00    -0.304 NA
ATOM      6  N   UNL     1      -2.029  -1.700  -0.271  0.00  0.00    -0.312 N 
ATOM      8  C   UNL     1      -4.016   0.662  -0.348  0.00  0.00    +0.084 C 
ATOM      9  C   UNL     1      -4.302  -0.854  -0.523  0.00  0.00    +0.158 C 
ATOM     10  C   UNL     1      -5.231   1.121   0.479  0.00  0.00    +0.036 C 
ATOM     11  C   UNL     1      -1.534   0.704  -0.609  0.00  0.00    +0.074 C 
ATOM     12  C   UNL     1      -6.333   0.184   0.039  0.00  0.00    +0.083 C 
ATOM     13  C   UNL     1      -1.585  -0.706  -1.228  0.00  0.00    +0.123 C 
ATOM     14  C   UNL     1      -3.334  -1.804   0.170  0.00  0.00    +0.232 C 
ATOM     16  C   UNL     1      -2.701   2.513   0.518  0.00  0.00    +0.105 C 
ATOM     24  H   UNL     1      -5.568  -1.430   0.979  0.00  0.00    +0.123 HD
ATOM     25  H   UNL     1      -1.335  -2.321   0.135  0.00  0.00    +0.149 HD
ENDROOT
BRANCH  11  15
ATOM     15  C   UNL     1      -0.239   0.800   0.225  0.00  0.00    +0.029 C 
BRANCH  15  17
ATOM     17  C   UNL     1       0.963   1.027  -0.674  0.00  0.00    +0.097 C 
BRANCH  17  18
ATOM      2  O   UNL     1       2.292   1.028   1.350  0.00  0.00    -0.276 OA
ATOM      7  N   UNL     1       3.348   1.331  -0.696  0.00  0.00    -0.308 N 
ATOM     18  C   UNL     1       2.249   1.123   0.126  0.00  0.00    +0.213 C 
ATOM     26  H   UNL     1       3.219   1.379  -1.702  0.00  0.00    +0.149 HD
BRANCH   7  19
ATOM     19  C   UNL     1       4.688   1.458  -0.173  0.00  0.00    +0.178 C 
BRANCH  19  20
ATOM      3  O   UNL     1       5.824  -0.278   1.094  0.00  0.00    -0.466 OA
ATOM     20  C   UNL     1       5.401   0.138  -0.129  0.00  0.00    +0.122 A 
ATOM     21  C   UNL     1       5.736  -0.784  -1.094  0.00  0.00    +0.046 A 
ATOM     22  C   UNL     1       6.407  -1.833  -0.420  0.00  0.00    +0.041 A 
ATOM     23  C   UNL     1       6.434  -1.477   0.908  0.00  0.00    +0.195 A 
ENDBRANCH  19  20
ENDBRANCH   7  19
ENDBRANCH  17  18
ENDBRANCH  15  17
ENDBRANCH  11  15
TORSDOF 5
