REMARK  Name = 40587851
REMARK  6 active torsions:
REMARK  status: ('A' for Active; 'I' for Inactive)
REMARK    1  A    between atoms: O_4  and  C_31
REMARK    2  A    between atoms: O_4  and  C_32
REMARK    3  A    between atoms: N_5  and  C_11
REMARK    4  A    between atoms: N_6  and  C_12
REMARK    5  A    between atoms: C_16  and  C_17
REMARK    6  A    between atoms: C_18  and  C_23
REMARK                            x       y       z     vdW  Elec       q    Type
REMARK                         _______ _______ _______ _____ _____    ______ ____
ROOT
ATOM      1  O   UNL     1      -1.722   3.541   1.137  0.00  0.00    -0.370 OA
ATOM      2  O   UNL     1      -0.758   0.666   1.873  0.00  0.00    -0.370 OA
ATOM      9  C   UNL     1      -0.602   1.487   0.703  0.00  0.00    +0.171 C 
ATOM     10  C   UNL     1      -1.896   2.256   0.518  0.00  0.00    +0.171 C 
ATOM     11  C   UNL     1       0.433   2.559   0.949  0.00  0.00    +0.130 C 
ATOM     12  C   UNL     1      -2.920   1.442   1.275  0.00  0.00    +0.130 C 
ATOM     13  C   UNL     1      -0.375   3.654   1.620  0.00  0.00    +0.185 C 
ATOM     14  C   UNL     1      -2.088   0.828   2.388  0.00  0.00    +0.185 C 
ENDROOT
BRANCH  11   5
ATOM      5  N   UNL     1       0.966   3.030  -0.310  0.00  0.00    -0.306 N 
ATOM      7  N   UNL     1       2.536   1.321  -0.396  0.00  0.00    -0.214 NA
ATOM      8  N   UNL     1       2.394   2.977  -2.141  0.00  0.00    -0.223 NA
ATOM     15  C   UNL     1       2.012   2.416  -0.978  0.00  0.00    +0.216 A 
ATOM     18  C   UNL     1       3.551   0.746  -1.075  0.00  0.00    +0.076 A 
ATOM     21  C   UNL     1       3.413   2.351  -2.767  0.00  0.00    +0.116 A 
ATOM     22  C   UNL     1       4.036   1.221  -2.276  0.00  0.00    +0.048 A 
ATOM     33  H   UNL     1       0.532   3.823  -0.769  0.00  0.00    +0.149 HD
BRANCH  18  23
ATOM     23  C   UNL     1       4.116  -0.428  -0.455  0.00  0.00    +0.001 A 
ATOM     27  C   UNL     1       5.464  -0.449  -0.099  0.00  0.00    +0.013 A 
ATOM     28  C   UNL     1       3.313  -1.544  -0.214  0.00  0.00    +0.013 A 
ATOM     29  C   UNL     1       6.010  -1.585   0.499  0.00  0.00    +0.046 A 
ATOM     30  C   UNL     1       3.859  -2.680   0.384  0.00  0.00    +0.046 A 
ATOM     31  C   UNL     1       5.208  -2.700   0.740  0.00  0.00    +0.120 A 
BRANCH  31   4
ATOM      4  O   UNL     1       5.741  -3.809   1.322  0.00  0.00    -0.495 OA
ATOM     32  C   UNL     1       4.864  -4.913   1.540  0.00  0.00    +0.277 C 
ENDBRANCH  31   4
ENDBRANCH  18  23
ENDBRANCH  11   5
BRANCH  12   6
ATOM      3  O   UNL     1      -5.505   0.232   1.591  0.00  0.00    -0.270 OA
ATOM      6  N   UNL     1      -3.503   0.424   0.435  0.00  0.00    -0.304 N 
ATOM     16  C   UNL     1      -4.766  -0.102   0.669  0.00  0.00    +0.244 C 
ATOM     34  H   UNL     1      -2.908   0.022  -0.281  0.00  0.00    +0.149 HD
BRANCH  16  17
ATOM     17  C   UNL     1      -5.212  -1.162  -0.272  0.00  0.00    +0.037 A 
ATOM     19  C   UNL     1      -6.134  -2.122   0.145  0.00  0.00    +0.013 A 
ATOM     20  C   UNL     1      -4.709  -1.196  -1.572  0.00  0.00    +0.013 A 
ATOM     24  C   UNL     1      -6.552  -3.117  -0.739  0.00  0.00    +0.001 A 
ATOM     25  C   UNL     1      -5.127  -2.191  -2.456  0.00  0.00    +0.001 A 
ATOM     26  C   UNL     1      -6.049  -3.151  -2.039  0.00  0.00    +0.000 A 
ENDBRANCH  16  17
ENDBRANCH  12   6
TORSDOF 5
