REMARK  Name = 44715968
REMARK  8 active torsions:
REMARK  status: ('A' for Active; 'I' for Inactive)
REMARK    1  A    between atoms: O_2  and  C_26
REMARK    2  A    between atoms: N_4  and  C_15
REMARK    3  A    between atoms: N_5  and  C_17
REMARK    4  A    between atoms: N_5  and  C_19
REMARK    5  A    between atoms: C_9  and  C_16
REMARK    6  A    between atoms: C_10  and  C_15
REMARK    7  A    between atoms: C_17  and  C_21
REMARK    8  A    between atoms: C_20  and  C_22
REMARK                            x       y       z     vdW  Elec       q    Type
REMARK                         _______ _______ _______ _____ _____    ______ ____
ROOT
ATOM      3  N   UNL     1      -2.136   2.362  -0.592  0.00  0.00    -0.297 NA
ATOM      8  C   UNL     1      -2.402   0.381   1.075  0.00  0.00    +0.005 C 
ATOM      9  C   UNL     1      -3.420   0.284  -0.080  0.00  0.00    +0.092 C 
ATOM     10  C   UNL     1      -0.942   1.476  -0.652  0.00  0.00    +0.078 C 
ATOM     11  C   UNL     1      -0.997   0.387   0.444  0.00  0.00    +0.025 C 
ATOM     12  C   UNL     1      -2.565   1.735   1.788  0.00  0.00    +0.020 C 
ATOM     13  C   UNL     1      -3.334   1.556  -0.944  0.00  0.00    +0.097 C 
ATOM     14  C   UNL     1      -2.335   2.874   0.784  0.00  0.00    +0.085 C 
ENDROOT
BRANCH   9  16
ATOM      1  O   UNL     1      -5.532   1.042   0.657  0.00  0.00    -0.275 OA
ATOM      5  N   UNL     1      -5.210  -1.259   0.620  0.00  0.00    -0.301 N 
ATOM     16  C   UNL     1      -4.813   0.065   0.431  0.00  0.00    +0.220 C 
ATOM     19  C   UNL     1      -6.535  -1.613   1.111  0.00  0.00    +0.132 C 
BRANCH   5  17
ATOM     17  C   UNL     1      -4.325  -2.387   0.340  0.00  0.00    +0.134 C 
BRANCH  17  21
ATOM     21  C   UNL     1      -4.509  -2.810  -1.080  0.00  0.00    -0.016 C 
ATOM     23  C   UNL     1      -4.887  -4.039  -1.449  0.00  0.00    +0.005 C 
ENDBRANCH  17  21
ENDBRANCH   5  17
ENDBRANCH   9  16
BRANCH  10  15
ATOM     15  C   UNL     1       0.367   2.267  -0.600  0.00  0.00    +0.164 C 
BRANCH  15   4
ATOM      4  N   UNL     1       1.556   1.382  -0.846  0.00  0.00    -0.250 N 
ATOM      6  N   UNL     1       1.664   0.680  -1.986  0.00  0.00    -0.065 NA
ATOM      7  N   UNL     1       2.803  -0.002  -1.923  0.00  0.00    -0.130 NA
ATOM     18  C   UNL     1       2.620   1.170  -0.024  0.00  0.00    +0.138 A 
ATOM     20  C   UNL     1       3.400   0.287  -0.728  0.00  0.00    +0.113 A 
BRANCH  20  22
ATOM     22  C   UNL     1       4.647  -0.254  -0.290  0.00  0.00    +0.007 A 
ATOM     24  C   UNL     1       4.888  -0.437   1.072  0.00  0.00    +0.055 A 
ATOM     25  C   UNL     1       5.623  -0.599  -1.224  0.00  0.00    +0.010 A 
ATOM     26  C   UNL     1       6.107  -0.966   1.499  0.00  0.00    +0.117 A 
ATOM     27  C   UNL     1       6.841  -1.127  -0.797  0.00  0.00    +0.004 A 
ATOM     28  C   UNL     1       7.083  -1.311   0.564  0.00  0.00    +0.045 A 
BRANCH  26   2
ATOM      2  O   UNL     1       6.343  -1.144   2.827  0.00  0.00    -0.507 OA
ATOM     29  H   UNL     1       5.563  -0.852   3.330  0.00  0.00    +0.292 HD
ENDBRANCH  26   2
ENDBRANCH  20  22
ENDBRANCH  15   4
ENDBRANCH  10  15
TORSDOF 7
