REMARK  Name = 45783250
REMARK  12 active torsions:
REMARK  status: ('A' for Active; 'I' for Inactive)
REMARK    1  A    between atoms: S_1  and  C_22
REMARK    2  A    between atoms: S_1  and  C_28
REMARK    3  A    between atoms: O_6  and  C_36
REMARK    4  A    between atoms: N_9  and  C_14
REMARK    5  A    between atoms: N_10  and  C_21
REMARK    6  A    between atoms: C_15  and  C_19
REMARK    7  A    between atoms: C_20  and  C_22
REMARK    8  A    between atoms: C_21  and  C_24
REMARK    9  A    between atoms: C_21  and  C_25
REMARK   10  A    between atoms: C_23  and  C_26
REMARK   11  A    between atoms: C_24  and  C_27
REMARK   12  A    between atoms: C_28  and  C_36
REMARK                            x       y       z     vdW  Elec       q    Type
REMARK                         _______ _______ _______ _____ _____    ______ ____
ROOT
ATOM      3  O   UNL     1      -3.340   2.951   2.748  0.00  0.00    -0.275 OA
ATOM      8  N   UNL     1      -1.838   1.677   1.507  0.00  0.00    -0.289 N 
ATOM     14  C   UNL     1       0.934   1.079   0.812  0.00  0.00    +0.077 C 
ATOM     15  C   UNL     1      -1.568   0.736   0.407  0.00  0.00    +0.164 C 
ATOM     16  C   UNL     1      -0.186   0.924  -0.221  0.00  0.00    +0.054 C 
ATOM     17  C   UNL     1       0.574   2.162   1.825  0.00  0.00    +0.041 C 
ATOM     18  C   UNL     1      -0.764   1.863   2.490  0.00  0.00    +0.110 C 
ATOM     20  C   UNL     1      -3.081   2.272   1.751  0.00  0.00    +0.226 C 
ENDROOT
BRANCH  15  19
ATOM      2  O   UNL     1      -2.036  -0.840   2.140  0.00  0.00    -0.274 OA
ATOM     10  N   UNL     1      -1.548  -1.626   0.004  0.00  0.00    -0.302 N 
ATOM     19  C   UNL     1      -1.754  -0.647   0.961  0.00  0.00    +0.234 C 
ATOM     39  H   UNL     1      -1.458  -1.351  -0.970  0.00  0.00    +0.150 HD
BRANCH  10  21
ATOM     21  C   UNL     1      -1.645  -3.040   0.287  0.00  0.00    +0.163 C 
BRANCH  21  25
ATOM      5  O   UNL     1      -3.856  -2.936  -0.715  0.00  0.00    -0.274 OA
ATOM     11  N   UNL     1      -3.488  -4.441   0.981  0.00  0.00    -0.328 N 
ATOM     25  C   UNL     1      -3.106  -3.432   0.122  0.00  0.00    +0.231 C 
ATOM     40  H   UNL     1      -4.435  -4.806   0.966  0.00  0.00    +0.145 HD
ATOM     41  H   UNL     1      -2.851  -4.856   1.653  0.00  0.00    +0.145 HD
ENDBRANCH  21  25
BRANCH  21  24
ATOM     24  C   UNL     1      -0.759  -3.879  -0.642  0.00  0.00    +0.067 C 
BRANCH  24  27
ATOM     27  C   UNL     1       0.702  -3.514  -0.543  0.00  0.00    -0.045 A 
ATOM     30  C   UNL     1       1.232  -2.527  -1.374  0.00  0.00    +0.004 A 
ATOM     31  C   UNL     1       1.522  -4.163   0.380  0.00  0.00    +0.004 A 
ATOM     32  C   UNL     1       2.583  -2.189  -1.282  0.00  0.00    +0.000 A 
ATOM     33  C   UNL     1       2.872  -3.826   0.471  0.00  0.00    +0.000 A 
ATOM     35  C   UNL     1       3.403  -2.839  -0.360  0.00  0.00    +0.000 A 
ENDBRANCH  24  27
ENDBRANCH  21  24
ENDBRANCH  10  21
ENDBRANCH  15  19
BRANCH  14   9
ATOM      4  O   UNL     1       3.553   0.327   1.718  0.00  0.00    -0.268 OA
ATOM      9  N   UNL     1       2.189   1.382   0.168  0.00  0.00    -0.307 N 
ATOM     23  C   UNL     1       3.409   0.974   0.684  0.00  0.00    +0.264 C 
ATOM     38  H   UNL     1       2.176   1.960  -0.668  0.00  0.00    +0.149 HD
BRANCH  23  26
ATOM     12  N   UNL     1       4.394   2.114  -1.200  0.00  0.00    -0.247 NA
ATOM     13  N   UNL     1       6.978   1.415  -0.363  0.00  0.00    -0.259 NA
ATOM     26  C   UNL     1       4.611   1.389  -0.084  0.00  0.00    +0.143 A 
ATOM     29  C   UNL     1       5.880   1.046   0.327  0.00  0.00    +0.143 A 
ATOM     34  C   UNL     1       5.491   2.483  -1.890  0.00  0.00    +0.131 A 
ATOM     37  C   UNL     1       6.760   2.139  -1.479  0.00  0.00    +0.130 A 
ENDBRANCH  23  26
ENDBRANCH  14   9
BRANCH  20  22
ATOM     22  C   UNL     1      -4.152   2.062   0.709  0.00  0.00    +0.165 C 
BRANCH  22   1
ATOM      1  S   UNL     1      -4.028   3.407  -0.479  0.00  0.00    -0.140 S 
BRANCH   1  28
ATOM     28  C   UNL     1      -5.379   2.929  -1.584  0.00  0.00    +0.189 C 
BRANCH  28  36
ATOM      7  O   UNL     1      -3.750   1.726  -2.891  0.00  0.00    -0.250 OA
ATOM     36  C   UNL     1      -4.908   1.845  -2.510  0.00  0.00    +0.315 C 
BRANCH  36   6
ATOM      6  O   UNL     1      -5.902   0.996  -2.873  0.00  0.00    -0.480 OA
ATOM     42  H   UNL     1      -5.580   0.288  -3.471  0.00  0.00    +0.295 HD
ENDBRANCH  36   6
ENDBRANCH  28  36
ENDBRANCH   1  28
ENDBRANCH  22   1
ENDBRANCH  20  22
TORSDOF 12
