REMARK  Name = 75537092
REMARK  6 active torsions:
REMARK  status: ('A' for Active; 'I' for Inactive)
REMARK    1  A    between atoms: O_3  and  C_24
REMARK    2  A    between atoms: O_3  and  C_27
REMARK    3  A    between atoms: N_5  and  C_14
REMARK    4  A    between atoms: N_6  and  C_15
REMARK    5  A    between atoms: C_14  and  C_17
REMARK    6  A    between atoms: C_15  and  C_16
REMARK                            x       y       z     vdW  Elec       q    Type
REMARK                         _______ _______ _______ _____ _____    ______ ____
ROOT
ATOM      2  O   UNL     1       2.784   3.072   0.068  0.00  0.00    -0.252 OA
ATOM      4  N   UNL     1       0.593   2.238  -0.089  0.00  0.00    -0.278 N 
ATOM      5  N   UNL     1      -1.972   1.426   0.732  0.00  0.00    -0.293 NA
ATOM      6  N   UNL     1       2.220   1.172  -1.212  0.00  0.00    -0.279 N 
ATOM      8  C   UNL     1      -0.099   1.220  -0.852  0.00  0.00    +0.109 C 
ATOM      9  C   UNL     1      -1.087   0.468   0.038  0.00  0.00    +0.109 C 
ATOM     10  C   UNL     1       1.030   0.366  -1.424  0.00  0.00    +0.133 C 
ATOM     11  C   UNL     1      -0.172   3.140   0.746  0.00  0.00    +0.125 C 
ATOM     12  C   UNL     1      -1.188   2.351   1.576  0.00  0.00    +0.104 C 
ATOM     13  C   UNL     1       1.968   2.266  -0.360  0.00  0.00    +0.305 C 
ENDROOT
BRANCH   5  14
ATOM     14  C   UNL     1      -2.960   0.713   1.540  0.00  0.00    +0.140 C 
BRANCH  14  17
ATOM      7  N   UNL     1      -4.042  -1.187   0.482  0.00  0.00    -0.217 NA
ATOM     17  C   UNL     1      -4.069   0.147   0.701  0.00  0.00    +0.059 A 
ATOM     20  C   UNL     1      -5.046   0.995   0.205  0.00  0.00    +0.025 A 
ATOM     23  C   UNL     1      -6.061   0.438  -0.566  0.00  0.00    +0.007 A 
ATOM     24  C   UNL     1      -5.044  -1.692  -0.272  0.00  0.00    +0.215 A 
ATOM     26  C   UNL     1      -6.067  -0.930  -0.814  0.00  0.00    +0.067 A 
BRANCH  24   3
ATOM      3  O   UNL     1      -5.029  -3.043  -0.501  0.00  0.00    -0.480 OA
ATOM     27  C   UNL     1      -3.957  -3.778   0.077  0.00  0.00    +0.279 C 
ENDBRANCH  24   3
ENDBRANCH  14  17
ENDBRANCH   5  14
BRANCH   6  15
ATOM     15  C   UNL     1       3.516   0.772  -1.713  0.00  0.00    +0.144 C 
BRANCH  15  16
ATOM      1  F   UNL     1       5.981  -3.036   1.623  0.00  0.00    -0.205 F 
ATOM     16  C   UNL     1       4.173  -0.243  -0.824  0.00  0.00    -0.030 A 
ATOM     18  C   UNL     1       4.997   0.174   0.221  0.00  0.00    +0.008 A 
ATOM     19  C   UNL     1       3.960  -1.604  -1.043  0.00  0.00    +0.008 A 
ATOM     21  C   UNL     1       5.608  -0.769   1.048  0.00  0.00    +0.038 A 
ATOM     22  C   UNL     1       4.571  -2.547  -0.216  0.00  0.00    +0.038 A 
ATOM     25  C   UNL     1       5.395  -2.130   0.829  0.00  0.00    +0.123 A 
ENDBRANCH  15  16
ENDBRANCH   6  15
TORSDOF 5
