REMARK  Name = 11884399
REMARK  5 active torsions:
REMARK  status: ('A' for Active; 'I' for Inactive)
REMARK    1  A    between atoms: N_7  and  C_18
REMARK    2  A    between atoms: N_8  and  C_25
REMARK    3  A    between atoms: N_9  and  C_29
REMARK    4  A    between atoms: C_34  and  C_35
REMARK    5  A    between atoms: C_35  and  C_36
REMARK                            x       y       z     vdW  Elec       q    Type
REMARK                         _______ _______ _______ _____ _____    ______ ____
ROOT
ATOM      1  O   UNL     1      -3.657   0.873   2.523  0.00  0.00    -0.253 OA
ATOM      2  O   UNL     1      -0.874  -1.042  -2.491  0.00  0.00    -0.266 OA
ATOM      5  N   UNL     1      -4.550  -0.583   0.949  0.00  0.00    -0.285 N 
ATOM      6  N   UNL     1      -2.241  -1.959  -0.834  0.00  0.00    -0.310 N 
ATOM      7  N   UNL     1      -4.498   1.753   0.579  0.00  0.00    -0.296 N 
ATOM     10  C   UNL     1      -4.787  -2.086  -1.050  0.00  0.00    +0.027 C 
ATOM     11  C   UNL     1      -3.696  -2.929   0.980  0.00  0.00    +0.054 C 
ATOM     12  C   UNL     1      -4.672  -3.296  -0.134  0.00  0.00    +0.018 C 
ATOM     13  C   UNL     1      -5.306  -0.855  -0.283  0.00  0.00    +0.114 C 
ATOM     14  C   UNL     1      -4.269  -1.754   1.789  0.00  0.00    +0.119 C 
ATOM     15  C   UNL     1      -3.421  -1.823  -1.697  0.00  0.00    +0.130 C 
ATOM     16  C   UNL     1      -2.333  -2.560   0.425  0.00  0.00    +0.027 A 
ATOM     17  C   UNL     1      -4.196   0.693   1.426  0.00  0.00    +0.302 C 
ATOM     19  C   UNL     1      -1.224  -2.783   1.150  0.00  0.00    +0.024 A 
ATOM     20  C   UNL     1      -1.006  -1.556  -1.380  0.00  0.00    +0.273 A 
ATOM     25  C   UNL     1       0.203  -1.799  -0.531  0.00  0.00    +0.100 A 
ATOM     27  C   UNL     1       0.068  -2.392   0.660  0.00  0.00    +0.030 A 
ATOM     37  H   UNL     1      -4.815   1.590  -0.365  0.00  0.00    +0.151 HD
ENDROOT
BRANCH  25   8
ATOM      3  O   UNL     1       2.444  -0.978   1.016  0.00  0.00    -0.252 OA
ATOM      8  N   UNL     1       1.416  -1.409  -1.018  0.00  0.00    -0.265 N 
ATOM      9  N   UNL     1       3.590  -0.674  -1.010  0.00  0.00    -0.269 N 
ATOM     28  C   UNL     1       2.491  -1.013  -0.212  0.00  0.00    +0.308 C 
ATOM     38  H   UNL     1       1.459  -1.164  -2.003  0.00  0.00    +0.157 HD
ATOM     39  H   UNL     1       3.467  -0.761  -2.015  0.00  0.00    +0.156 HD
BRANCH   9  29
ATOM     29  C   UNL     1       4.864  -0.226  -0.589  0.00  0.00    +0.035 A 
ATOM     30  C   UNL     1       5.847   0.067  -1.534  0.00  0.00    +0.024 A 
ATOM     31  C   UNL     1       5.138  -0.079   0.770  0.00  0.00    +0.024 A 
ATOM     32  C   UNL     1       7.104   0.507  -1.120  0.00  0.00    +0.013 A 
ATOM     33  C   UNL     1       6.394   0.362   1.185  0.00  0.00    +0.013 A 
ATOM     34  C   UNL     1       7.378   0.655   0.240  0.00  0.00    +0.017 A 
BRANCH  34  35
ATOM      4  O   UNL     1       8.834   1.770   1.724  0.00  0.00    -0.292 OA
ATOM     35  C   UNL     1       8.688   1.115   0.672  0.00  0.00    +0.160 C 
ATOM     36  C   UNL     1       9.925   0.804  -0.163  0.00  0.00    +0.091 C 
ENDBRANCH  34  35
ENDBRANCH   9  29
ENDBRANCH  25   8
BRANCH   7  18
ATOM     18  C   UNL     1      -4.204   3.126   0.927  0.00  0.00    +0.074 C 
ATOM     21  C   UNL     1      -5.241   4.081   0.327  0.00  0.00    +0.022 C 
ATOM     22  C   UNL     1      -2.783   3.509   0.500  0.00  0.00    +0.022 C 
ATOM     23  C   UNL     1      -5.100   4.221  -1.189  0.00  0.00    +0.002 C 
ATOM     24  C   UNL     1      -2.646   3.650  -1.016  0.00  0.00    +0.002 C 
ATOM     26  C   UNL     1      -3.681   4.614  -1.588  0.00  0.00    +0.000 C 
ENDBRANCH   7  18
TORSDOF 4
