REMARK  Name = 75536700
REMARK  8 active torsions:
REMARK  status: ('A' for Active; 'I' for Inactive)
REMARK    1  A    between atoms: S_1  and  N_8
REMARK    2  A    between atoms: S_1  and  C_19
REMARK    3  A    between atoms: O_3  and  C_10
REMARK    4  A    between atoms: N_7  and  C_9
REMARK    5  A    between atoms: N_7  and  C_12
REMARK    6  A    between atoms: N_8  and  C_16
REMARK    7  A    between atoms: C_11  and  C_16
REMARK    8  A    between atoms: C_24  and  C_25
REMARK                            x       y       z     vdW  Elec       q    Type
REMARK                         _______ _______ _______ _____ _____    ______ ____
ROOT
ATOM      2  O   UNL     1      -0.735   0.847  -1.341  0.00  0.00    -0.371 OA
ATOM      9  C   UNL     1      -2.572   0.245   0.039  0.00  0.00    +0.111 C 
ATOM     10  C   UNL     1      -1.290   0.120   0.840  0.00  0.00    +0.164 C 
ATOM     11  C   UNL     1      -0.353   1.011   0.035  0.00  0.00    +0.164 C 
ATOM     13  C   UNL     1      -2.039   0.242  -1.385  0.00  0.00    +0.181 C 
ENDROOT
BRANCH  10   3
ATOM      3  O   UNL     1      -1.433   0.574   2.172  0.00  0.00    -0.388 OA
ATOM     27  H   UNL     1      -1.750   1.492   2.151  0.00  0.00    +0.210 HD
ENDBRANCH  10   3
BRANCH   9   7
ATOM      7  N   UNL     1      -3.524  -0.825   0.289  0.00  0.00    -0.306 NA
ATOM     26  H   UNL     1      -3.584  -1.013   1.290  0.00  0.00    +0.123 HD
BRANCH   7  12
ATOM      4  O   UNL     1      -7.706  -0.520   0.094  0.00  0.00    -0.380 OA
ATOM     12  C   UNL     1      -4.846  -0.486  -0.231  0.00  0.00    +0.058 C 
ATOM     14  C   UNL     1      -5.680  -1.755  -0.432  0.00  0.00    +0.047 C 
ATOM     15  C   UNL     1      -5.577   0.478   0.707  0.00  0.00    +0.047 C 
ATOM     17  C   UNL     1      -7.099  -1.394  -0.858  0.00  0.00    +0.161 C 
ATOM     18  C   UNL     1      -7.002   0.716   0.219  0.00  0.00    +0.161 C 
ENDBRANCH   7  12
ENDBRANCH   9   7
BRANCH  11  16
ATOM     16  C   UNL     1       1.112   0.651   0.207  0.00  0.00    +0.140 C 
BRANCH  16   8
ATOM      8  N   UNL     1       1.944   1.560  -0.606  0.00  0.00    -0.187 NA
ATOM     28  H   UNL     1       1.742   1.569  -1.613  0.00  0.00    +0.148 HD
BRANCH   8   1
ATOM      1  S   UNL     1       3.513   1.968  -0.091  0.00  0.00    +0.058 S 
ATOM      5  O   UNL     1       3.455   2.491   1.261  0.00  0.00    -0.153 OA
ATOM      6  O   UNL     1       4.171   2.726  -1.138  0.00  0.00    -0.153 OA
BRANCH   1  19
ATOM     19  C   UNL     1       4.297   0.385  -0.030  0.00  0.00    +0.105 A 
ATOM     20  C   UNL     1       4.950  -0.114  -1.157  0.00  0.00    +0.029 A 
ATOM     21  C   UNL     1       4.259  -0.367   1.144  0.00  0.00    +0.029 A 
ATOM     22  C   UNL     1       5.566  -1.364  -1.110  0.00  0.00    +0.005 A 
ATOM     23  C   UNL     1       4.875  -1.618   1.191  0.00  0.00    +0.005 A 
ATOM     24  C   UNL     1       5.528  -2.117   0.064  0.00  0.00    -0.050 A 
ATOM     25  C   UNL     1       6.187  -3.454   0.114  0.00  0.00    +0.044 C 
ENDBRANCH   1  19
ENDBRANCH   8   1
ENDBRANCH  16   8
ENDBRANCH  11  16
TORSDOF 7
