REMARK  Name = 56775119
REMARK  6 active torsions:
REMARK  status: ('A' for Active; 'I' for Inactive)
REMARK    1  A    between atoms: O_3  and  C_17
REMARK    2  A    between atoms: O_3  and  C_23
REMARK    3  A    between atoms: N_6  and  C_12
REMARK    4  A    between atoms: N_7  and  C_14
REMARK    5  A    between atoms: C_12  and  C_16
REMARK    6  A    between atoms: C_14  and  C_17
REMARK                            x       y       z     vdW  Elec       q    Type
REMARK                         _______ _______ _______ _____ _____    ______ ____
ROOT
ATOM      1  O   UNL     1      -1.918   2.232  -0.273  0.00  0.00    -0.364 OA
ATOM      2  O   UNL     1      -5.221   1.440   0.667  0.00  0.00    -0.273 OA
ATOM      6  N   UNL     1       0.229  -0.146   0.494  0.00  0.00    -0.294 NA
ATOM      7  N   UNL     1      -3.416   0.005   0.351  0.00  0.00    -0.291 N 
ATOM      8  C   UNL     1      -2.019  -0.168  -0.039  0.00  0.00    +0.120 C 
ATOM      9  C   UNL     1      -1.411   1.007  -0.798  0.00  0.00    +0.154 C 
ATOM     10  C   UNL     1      -1.069  -0.309   1.147  0.00  0.00    +0.110 C 
ATOM     11  C   UNL     1       0.086   0.946  -0.478  0.00  0.00    +0.118 C 
ATOM     13  C   UNL     1      -4.076   1.228   0.265  0.00  0.00    +0.242 C 
ATOM     15  C   UNL     1      -3.313   2.319  -0.455  0.00  0.00    +0.256 C 
ENDROOT
BRANCH   6  12
ATOM     12  C   UNL     1       1.311   0.076   1.440  0.00  0.00    +0.119 C 
BRANCH  12  16
ATOM      4  O   UNL     1       5.659   1.345  -0.555  0.00  0.00    -0.453 OA
ATOM      5  O   UNL     1       6.342  -0.951  -0.820  0.00  0.00    -0.453 OA
ATOM     16  C   UNL     1       2.655  -0.235   0.838  0.00  0.00    -0.030 A 
ATOM     18  C   UNL     1       3.495   0.807   0.437  0.00  0.00    +0.054 A 
ATOM     19  C   UNL     1       3.054  -1.575   0.683  0.00  0.00    +0.009 A 
ATOM     20  C   UNL     1       4.717   0.471  -0.110  0.00  0.00    +0.167 A 
ATOM     21  C   UNL     1       4.296  -1.888   0.126  0.00  0.00    +0.050 A 
ATOM     22  C   UNL     1       5.106  -0.840  -0.261  0.00  0.00    +0.166 A 
ATOM     24  C   UNL     1       6.687   0.438  -1.003  0.00  0.00    +0.466 C 
ENDBRANCH  12  16
ENDBRANCH   6  12
BRANCH   7  14
ATOM     14  C   UNL     1      -4.087  -1.147   0.938  0.00  0.00    +0.136 C 
BRANCH  14  17
ATOM     17  C   UNL     1      -4.803  -1.972  -0.116  0.00  0.00    +0.178 C 
BRANCH  17   3
ATOM      3  O   UNL     1      -5.801  -1.176  -0.742  0.00  0.00    -0.381 OA
ATOM     23  C   UNL     1      -6.504  -1.908  -1.736  0.00  0.00    +0.194 C 
ENDBRANCH  17   3
ENDBRANCH  14  17
ENDBRANCH   7  14
TORSDOF 5
