REMARK  Name = 75536710
REMARK  11 active torsions:
REMARK  status: ('A' for Active; 'I' for Inactive)
REMARK    1  A    between atoms: S_1  and  N_8
REMARK    2  A    between atoms: S_1  and  C_17
REMARK    3  A    between atoms: O_3  and  C_11
REMARK    4  A    between atoms: N_7  and  C_10
REMARK    5  A    between atoms: N_7  and  C_15
REMARK    6  A    between atoms: N_8  and  C_14
REMARK    7  A    between atoms: N_9  and  C_24
REMARK    8  A    between atoms: C_12  and  C_14
REMARK    9  A    between atoms: C_15  and  C_16
REMARK   10  A    between atoms: C_27  and  C_28
REMARK   11  A    between atoms: C_29  and  C_30
REMARK                            x       y       z     vdW  Elec       q    Type
REMARK                         _______ _______ _______ _____ _____    ______ ____
ROOT
ATOM      2  O   UNL     1      -3.177   1.748   1.343  0.00  0.00    -0.371 OA
ATOM     10  C   UNL     1      -1.829   3.286   0.150  0.00  0.00    +0.111 C 
ATOM     11  C   UNL     1      -2.972   2.865  -0.757  0.00  0.00    +0.164 C 
ATOM     12  C   UNL     1      -3.662   1.723  -0.012  0.00  0.00    +0.164 C 
ATOM     13  C   UNL     1      -2.368   2.917   1.522  0.00  0.00    +0.181 C 
ENDROOT
BRANCH  11   3
ATOM      3  O   UNL     1      -3.876   3.969  -0.859  0.00  0.00    -0.388 OA
ATOM     32  H   UNL     1      -4.620   3.683  -1.415  0.00  0.00    +0.210 HD
ENDBRANCH  11   3
BRANCH  10   7
ATOM      7  N   UNL     1      -0.607   2.541  -0.143  0.00  0.00    -0.305 NA
ATOM     31  H   UNL     1      -0.445   2.548  -1.151  0.00  0.00    +0.123 HD
BRANCH   7  15
ATOM     15  C   UNL     1       0.545   3.140   0.520  0.00  0.00    +0.116 C 
BRANCH  15  16
ATOM     16  C   UNL     1       1.812   2.375   0.242  0.00  0.00    -0.033 A 
ATOM     18  C   UNL     1       2.743   2.873  -0.670  0.00  0.00    +0.007 A 
ATOM     19  C   UNL     1       2.056   1.168   0.898  0.00  0.00    +0.007 A 
ATOM     22  C   UNL     1       3.917   2.165  -0.926  0.00  0.00    +0.023 A 
ATOM     23  C   UNL     1       3.230   0.460   0.641  0.00  0.00    +0.023 A 
ATOM     24  C   UNL     1       4.160   0.958  -0.271  0.00  0.00    +0.033 A 
BRANCH  24   9
ATOM      6  O   UNL     1       5.153  -1.653   0.853  0.00  0.00    -0.276 OA
ATOM      9  N   UNL     1       5.335   0.250  -0.527  0.00  0.00    -0.286 N 
ATOM     29  C   UNL     1       5.750  -0.968   0.029  0.00  0.00    +0.214 C 
ATOM     30  C   UNL     1       7.088  -1.402  -0.513  0.00  0.00    +0.109 C 
ATOM     34  H   UNL     1       5.962   0.680  -1.204  0.00  0.00    +0.155 HD
ENDBRANCH  24   9
ENDBRANCH  15  16
ENDBRANCH   7  15
ENDBRANCH  10   7
BRANCH  12  14
ATOM     14  C   UNL     1      -3.369   0.351  -0.599  0.00  0.00    +0.140 C 
BRANCH  14   8
ATOM      8  N   UNL     1      -4.075  -0.683   0.183  0.00  0.00    -0.187 NA
ATOM     33  H   UNL     1      -4.165  -0.482   1.187  0.00  0.00    +0.148 HD
BRANCH   8   1
ATOM      1  S   UNL     1      -3.949  -2.321  -0.261  0.00  0.00    +0.058 S 
ATOM      4  O   UNL     1      -4.321  -2.471  -1.654  0.00  0.00    -0.153 OA
ATOM      5  O   UNL     1      -4.586  -3.135   0.756  0.00  0.00    -0.153 OA
BRANCH   1  17
ATOM     17  C   UNL     1      -2.208  -2.599  -0.129  0.00  0.00    +0.105 A 
ATOM     20  C   UNL     1      -1.661  -3.032   1.079  0.00  0.00    +0.029 A 
ATOM     21  C   UNL     1      -1.382  -2.382  -1.231  0.00  0.00    +0.029 A 
ATOM     25  C   UNL     1      -0.287  -3.248   1.185  0.00  0.00    +0.005 A 
ATOM     26  C   UNL     1      -0.008  -2.599  -1.126  0.00  0.00    +0.005 A 
ATOM     27  C   UNL     1       0.539  -3.032   0.082  0.00  0.00    -0.050 A 
ATOM     28  C   UNL     1       2.009  -3.263   0.195  0.00  0.00    +0.044 C 
ENDBRANCH   1  17
ENDBRANCH   8   1
ENDBRANCH  14   8
ENDBRANCH  12  14
TORSDOF 9
