REMARK  Name = 45360760
REMARK  13 active torsions:
REMARK  status: ('A' for Active; 'I' for Inactive)
REMARK    1  A    between atoms: N_5  and  C_9
REMARK    2  A    between atoms: N_5  and  C_17
REMARK    3  A    between atoms: N_6  and  C_22
REMARK    4  A    between atoms: N_6  and  C_23
REMARK    5  A    between atoms: N_7  and  C_26
REMARK    6  A    between atoms: N_7  and  C_29
REMARK    7  A    between atoms: N_7  and  C_30
REMARK    8  A    between atoms: C_10  and  C_15
REMARK    9  A    between atoms: C_15  and  C_16
REMARK   10  A    between atoms: C_16  and  C_18
REMARK   11  A    between atoms: C_17  and  C_19
REMARK   12  A    between atoms: C_22  and  C_27
REMARK   13  A    between atoms: C_23  and  C_28
REMARK                            x       y       z     vdW  Elec       q    Type
REMARK                         _______ _______ _______ _____ _____    ______ ____
ROOT
ATOM      1  O   UNL     1      -0.451  -4.965  -0.505  0.00  0.00    -0.274 OA
ATOM      3  N   UNL     1      -1.921  -1.632  -0.274  0.00  0.00    -0.286 NA
ATOM      4  N   UNL     1      -1.983  -4.149   0.964  0.00  0.00    -0.313 N 
ATOM      8  C   UNL     1      -1.244  -2.744  -0.953  0.00  0.00    +0.145 C 
ATOM      9  C   UNL     1       0.187  -0.806  -0.651  0.00  0.00    +0.070 C 
ATOM     10  C   UNL     1      -3.106  -2.022   0.482  0.00  0.00    +0.075 C 
ATOM     11  C   UNL     1       0.167  -2.212  -1.250  0.00  0.00    +0.048 C 
ATOM     12  C   UNL     1      -0.893  -0.861   0.421  0.00  0.00    +0.104 C 
ATOM     13  C   UNL     1      -2.759  -3.070   1.529  0.00  0.00    +0.123 C 
ATOM     14  C   UNL     1      -1.173  -4.033  -0.139  0.00  0.00    +0.230 C 
ATOM     31  H   UNL     1      -1.942  -5.020   1.486  0.00  0.00    +0.149 HD
ENDROOT
BRANCH   9   5
ATOM      5  N   UNL     1       1.493  -0.422  -0.139  0.00  0.00    -0.308 NA
ATOM     32  H   UNL     1       1.378   0.350   0.519  0.00  0.00    +0.123 HD
BRANCH   5  17
ATOM     17  C   UNL     1       2.374   0.003  -1.219  0.00  0.00    +0.116 C 
BRANCH  17  19
ATOM     19  C   UNL     1       3.737   0.392  -0.710  0.00  0.00    -0.033 A 
ATOM     20  C   UNL     1       3.920   1.618  -0.072  0.00  0.00    +0.007 A 
ATOM     21  C   UNL     1       4.817  -0.475  -0.877  0.00  0.00    +0.007 A 
ATOM     24  C   UNL     1       5.182   1.978   0.399  0.00  0.00    +0.023 A 
ATOM     25  C   UNL     1       6.080  -0.115  -0.406  0.00  0.00    +0.023 A 
ATOM     26  C   UNL     1       6.262   1.111   0.232  0.00  0.00    +0.029 A 
BRANCH  26   7
ATOM      7  N   UNL     1       7.539   1.475   0.708  0.00  0.00    -0.336 N 
ATOM     29  C   UNL     1       7.739   2.748   1.372  0.00  0.00    +0.129 C 
ATOM     30  C   UNL     1       8.666   0.579   0.546  0.00  0.00    +0.129 C 
ENDBRANCH  26   7
ENDBRANCH  17  19
ENDBRANCH   5  17
ENDBRANCH   9   5
BRANCH  10  15
ATOM     15  C   UNL     1      -3.825  -0.830   1.115  0.00  0.00    +0.029 C 
BRANCH  15  16
ATOM     16  C   UNL     1      -4.136   0.242   0.075  0.00  0.00    +0.097 C 
BRANCH  16  18
ATOM      2  O   UNL     1      -5.088   1.484   1.891  0.00  0.00    -0.276 OA
ATOM      6  N   UNL     1      -5.160   2.485  -0.200  0.00  0.00    -0.302 N 
ATOM     18  C   UNL     1      -4.835   1.450   0.684  0.00  0.00    +0.216 C 
BRANCH   6  22
ATOM     22  C   UNL     1      -5.840   3.672   0.304  0.00  0.00    +0.104 C 
ATOM     27  C   UNL     1      -7.345   3.517   0.242  0.00  0.00    +0.024 C 
ENDBRANCH   6  22
BRANCH   6  23
ATOM     23  C   UNL     1      -4.881   2.490  -1.634  0.00  0.00    +0.104 C 
ATOM     28  C   UNL     1      -3.524   3.093  -1.933  0.00  0.00    +0.024 C 
ENDBRANCH   6  23
ENDBRANCH  16  18
ENDBRANCH  15  16
ENDBRANCH  10  15
TORSDOF 9
