REMARK  Name = 26743012
REMARK  10 active torsions:
REMARK  status: ('A' for Active; 'I' for Inactive)
REMARK    1  A    between atoms: O_3  and  C_21
REMARK    2  A    between atoms: O_3  and  C_27
REMARK    3  A    between atoms: N_5  and  C_17
REMARK    4  A    between atoms: N_5  and  C_19
REMARK    5  A    between atoms: C_7  and  C_11
REMARK    6  A    between atoms: C_8  and  C_13
REMARK    7  A    between atoms: C_11  and  C_15
REMARK    8  A    between atoms: C_13  and  C_14
REMARK    9  A    between atoms: C_17  and  C_20
REMARK   10  A    between atoms: C_18  and  C_21
REMARK                            x       y       z     vdW  Elec       q    Type
REMARK                         _______ _______ _______ _____ _____    ______ ____
ROOT
ATOM      4  N   UNL     1       2.139   3.439  -0.078  0.00  0.00    -0.316 NA
ATOM      7  C   UNL     1       0.068   1.507   0.748  0.00  0.00    +0.004 C 
ATOM      8  C   UNL     1       1.508   1.081   0.377  0.00  0.00    +0.012 C 
ATOM      9  C   UNL     1       0.081   2.975   1.206  0.00  0.00    +0.019 C 
ATOM     10  C   UNL     1       2.160   2.073  -0.601  0.00  0.00    +0.085 C 
ATOM     12  C   UNL     1       0.779   3.893   0.204  0.00  0.00    +0.081 C 
ATOM     28  H   UNL     1       2.571   4.067  -0.756  0.00  0.00    +0.122 HD
ENDROOT
BRANCH   7  11
ATOM     11  C   UNL     1      -0.954   1.295  -0.376  0.00  0.00    +0.100 C 
BRANCH  11  15
ATOM      1  O   UNL     1      -2.618   1.339   1.349  0.00  0.00    -0.276 OA
ATOM      5  N   UNL     1      -3.374   1.043  -0.824  0.00  0.00    -0.300 N 
ATOM     15  C   UNL     1      -2.381   1.230   0.143  0.00  0.00    +0.216 C 
ATOM     19  C   UNL     1      -3.070   0.917  -2.244  0.00  0.00    +0.132 C 
BRANCH   5  17
ATOM     17  C   UNL     1      -4.793   0.960  -0.483  0.00  0.00    +0.142 C 
BRANCH  17  20
ATOM     20  C   UNL     1      -5.210  -0.445  -0.158  0.00  0.00    -0.030 A 
ATOM     22  C   UNL     1      -5.673  -1.287  -1.169  0.00  0.00    +0.005 A 
ATOM     23  C   UNL     1      -5.136  -0.909   1.156  0.00  0.00    +0.005 A 
ATOM     24  C   UNL     1      -6.061  -2.593  -0.867  0.00  0.00    +0.000 A 
ATOM     25  C   UNL     1      -5.525  -2.214   1.458  0.00  0.00    +0.000 A 
ATOM     26  C   UNL     1      -5.987  -3.056   0.446  0.00  0.00    +0.000 A 
ENDBRANCH  17  20
ENDBRANCH   5  17
ENDBRANCH  11  15
ENDBRANCH   7  11
BRANCH   8  13
ATOM     13  C   UNL     1       1.590  -0.344  -0.170  0.00  0.00    +0.064 C 
BRANCH  13  14
ATOM      2  O   UNL     1       4.622  -1.958   0.907  0.00  0.00    -0.357 OA
ATOM      6  N   UNL     1       3.299  -1.578   1.093  0.00  0.00    -0.083 NA
ATOM     14  C   UNL     1       2.972  -0.911  -0.018  0.00  0.00    +0.084 A 
ATOM     16  C   UNL     1       4.038  -0.839  -0.931  0.00  0.00    +0.073 A 
ATOM     18  C   UNL     1       5.051  -1.512  -0.301  0.00  0.00    +0.163 A 
BRANCH  18  21
ATOM     21  C   UNL     1       6.439  -1.829  -0.662  0.00  0.00    +0.236 C 
BRANCH  21   3
ATOM      3  O   UNL     1       7.343  -0.994   0.065  0.00  0.00    -0.375 OA
ATOM     27  C   UNL     1       8.691  -1.284  -0.269  0.00  0.00    +0.194 C 
ENDBRANCH  21   3
ENDBRANCH  18  21
ENDBRANCH  13  14
ENDBRANCH   8  13
TORSDOF 8
