REMARK  Name = 26743522
REMARK  7 active torsions:
REMARK  status: ('A' for Active; 'I' for Inactive)
REMARK    1  A    between atoms: O_1  and  C_12
REMARK    2  A    between atoms: N_4  and  C_14
REMARK    3  A    between atoms: N_7  and  C_22
REMARK    4  A    between atoms: C_10  and  C_15
REMARK    5  A    between atoms: C_14  and  C_16
REMARK    6  A    between atoms: C_19  and  C_23
REMARK    7  A    between atoms: C_25  and  C_28
REMARK                            x       y       z     vdW  Elec       q    Type
REMARK                         _______ _______ _______ _____ _____    ______ ____
ROOT
ATOM      4  N   UNL     1       3.062   0.907   0.452  0.00  0.00    -0.285 NA
ATOM     10  C   UNL     1       3.135  -0.158  -0.569  0.00  0.00    +0.149 C 
ATOM     11  C   UNL     1       4.274  -1.079  -0.098  0.00  0.00    +0.061 C 
ATOM     12  C   UNL     1       4.811  -0.427   1.171  0.00  0.00    +0.130 C 
ATOM     13  C   UNL     1       4.404   1.027   1.020  0.00  0.00    +0.116 C 
ENDROOT
BRANCH  10  15
ATOM      2  O   UNL     1       1.589  -1.442  -1.961  0.00  0.00    -0.336 OA
ATOM      5  N   UNL     1       0.856  -1.078   0.124  0.00  0.00    -0.189 NA
ATOM      6  N   UNL     1       0.333  -2.055  -1.877  0.00  0.00    -0.054 NA
ATOM     15  C   UNL     1       1.821  -0.891  -0.740  0.00  0.00    +0.245 A 
ATOM     19  C   UNL     1      -0.035  -1.797  -0.619  0.00  0.00    +0.222 A 
BRANCH  19  23
ATOM      8  N   UNL     1      -2.088  -2.945  -0.896  0.00  0.00    -0.249 NA
ATOM      9  N   UNL     1      -2.808  -2.377   1.754  0.00  0.00    -0.260 NA
ATOM     23  C   UNL     1      -1.284  -2.243  -0.073  0.00  0.00    +0.129 A 
ATOM     24  C   UNL     1      -1.638  -1.964   1.229  0.00  0.00    +0.142 A 
ATOM     26  C   UNL     1      -3.259  -3.358  -0.371  0.00  0.00    +0.131 A 
ATOM     27  C   UNL     1      -3.612  -3.079   0.931  0.00  0.00    +0.130 A 
ENDBRANCH  19  23
ENDBRANCH  10  15
BRANCH  12   1
ATOM      1  O   UNL     1       6.215  -0.573   1.255  0.00  0.00    -0.390 OA
ATOM     29  H   UNL     1       6.409  -1.526   1.272  0.00  0.00    +0.210 HD
ENDBRANCH  12   1
BRANCH   4  14
ATOM     14  C   UNL     1       2.574   2.175  -0.073  0.00  0.00    +0.120 C 
BRANCH  14  16
ATOM     16  C   UNL     1       1.074   2.186  -0.208  0.00  0.00    -0.033 A 
ATOM     17  C   UNL     1       0.487   2.413  -1.452  0.00  0.00    +0.007 A 
ATOM     18  C   UNL     1       0.272   1.971   0.913  0.00  0.00    +0.007 A 
ATOM     20  C   UNL     1      -0.902   2.424  -1.577  0.00  0.00    +0.023 A 
ATOM     21  C   UNL     1      -1.117   1.982   0.789  0.00  0.00    +0.023 A 
ATOM     22  C   UNL     1      -1.704   2.209  -0.456  0.00  0.00    +0.033 A 
BRANCH  22   7
ATOM      3  O   UNL     1      -3.855   1.810   1.613  0.00  0.00    -0.276 OA
ATOM      7  N   UNL     1      -3.094   2.220  -0.580  0.00  0.00    -0.286 N 
ATOM     25  C   UNL     1      -4.053   2.026   0.422  0.00  0.00    +0.214 C 
ATOM     28  C   UNL     1      -5.457   2.116  -0.123  0.00  0.00    +0.109 C 
ATOM     30  H   UNL     1      -3.444   2.392  -1.520  0.00  0.00    +0.155 HD
ENDBRANCH  22   7
ENDBRANCH  14  16
ENDBRANCH   4  14
TORSDOF 6
