REMARK  Name = 38029578
REMARK  11 active torsions:
REMARK  status: ('A' for Active; 'I' for Inactive)
REMARK    1  A    between atoms: S_1  and  N_7
REMARK    2  A    between atoms: S_1  and  C_21
REMARK    3  A    between atoms: O_3  and  C_20
REMARK    4  A    between atoms: N_7  and  C_15
REMARK    5  A    between atoms: C_8  and  C_12
REMARK    6  A    between atoms: C_9  and  C_15
REMARK    7  A    between atoms: C_11  and  C_16
REMARK    8  A    between atoms: C_12  and  C_17
REMARK    9  A    between atoms: C_12  and  C_18
REMARK   10  A    between atoms: C_13  and  C_19
REMARK   11  A    between atoms: C_16  and  C_20
REMARK                            x       y       z     vdW  Elec       q    Type
REMARK                         _______ _______ _______ _____ _____    ______ ____
ROOT
ATOM      8  C   UNL     1       1.663   1.215  -0.161  0.00  0.00    +0.000 C 
ATOM      9  C   UNL     1       0.703   0.769  -1.293  0.00  0.00    +0.030 C 
ATOM     10  C   UNL     1       3.125   1.013  -0.587  0.00  0.00    +0.012 C 
ATOM     11  C   UNL     1       3.433  -0.455  -0.938  0.00  0.00    +0.025 C 
ATOM     13  C   UNL     1       2.375  -1.051  -1.845  0.00  0.00    -0.073 C 
ATOM     14  C   UNL     1       1.166  -0.482  -2.002  0.00  0.00    -0.023 C 
ATOM     19  C   UNL     1       2.755  -2.291  -2.605  0.00  0.00    +0.039 C 
ENDROOT
BRANCH   8  12
ATOM     12  C   UNL     1       1.435   2.677   0.235  0.00  0.00    -0.013 C 
ATOM     17  C   UNL     1       2.151   3.609  -0.737  0.00  0.00    +0.007 C 
ATOM     18  C   UNL     1       1.907   2.921   1.665  0.00  0.00    +0.007 C 
ENDBRANCH   8  12
BRANCH   9  15
ATOM     15  C   UNL     1      -0.719   0.559  -0.761  0.00  0.00    +0.113 C 
BRANCH  15   7
ATOM      7  N   UNL     1      -0.718  -0.572   0.180  0.00  0.00    -0.189 NA
ATOM     27  H   UNL     1      -0.399  -1.474  -0.195  0.00  0.00    +0.148 HD
BRANCH   7   1
ATOM      1  S   UNL     1      -1.829  -0.614   1.471  0.00  0.00    +0.059 S 
ATOM      5  O   UNL     1      -1.722   0.615   2.234  0.00  0.00    -0.153 OA
ATOM      6  O   UNL     1      -1.735  -1.898   2.138  0.00  0.00    -0.153 OA
BRANCH   1  21
ATOM      2  F   UNL     1      -5.797   1.815  -0.648  0.00  0.00    -0.205 F 
ATOM     21  C   UNL     1      -3.376  -0.589   0.615  0.00  0.00    +0.108 A 
ATOM     22  C   UNL     1      -3.988   0.628   0.315  0.00  0.00    +0.066 A 
ATOM     23  C   UNL     1      -3.985  -1.787   0.239  0.00  0.00    +0.029 A 
ATOM     24  C   UNL     1      -5.209   0.647  -0.360  0.00  0.00    +0.125 A 
ATOM     25  C   UNL     1      -5.205  -1.768  -0.435  0.00  0.00    +0.005 A 
ATOM     26  C   UNL     1      -5.817  -0.551  -0.735  0.00  0.00    +0.038 A 
ENDBRANCH   1  21
ENDBRANCH   7   1
ENDBRANCH  15   7
ENDBRANCH   9  15
BRANCH  11  16
ATOM     16  C   UNL     1       3.609  -1.300   0.328  0.00  0.00    +0.128 C 
BRANCH  16  20
ATOM      4  O   UNL     1       5.797  -0.263   0.603  0.00  0.00    -0.251 OA
ATOM     20  C   UNL     1       4.934  -1.039   0.985  0.00  0.00    +0.305 C 
BRANCH  20   3
ATOM      3  O   UNL     1       5.048  -1.806   2.100  0.00  0.00    -0.481 OA
ATOM     28  H   UNL     1       5.903  -1.661   2.557  0.00  0.00    +0.295 HD
ENDBRANCH  20   3
ENDBRANCH  16  20
ENDBRANCH  11  16
TORSDOF 8
