REMARK  Name = 7113944
REMARK  5 active torsions:
REMARK  status: ('A' for Active; 'I' for Inactive)
REMARK    1  A    between atoms: S_1  and  N_9
REMARK    2  A    between atoms: S_1  and  C_28
REMARK    3  A    between atoms: N_9  and  C_20
REMARK    4  A    between atoms: C_19  and  C_22
REMARK    5  A    between atoms: C_27  and  C_29
REMARK                            x       y       z     vdW  Elec       q    Type
REMARK                         _______ _______ _______ _____ _____    ______ ____
ROOT
ATOM      3  O   UNL     1       3.617  -1.904   0.705  0.00  0.00    -0.266 OA
ATOM      4  O   UNL     1       1.539   2.402   2.704  0.00  0.00    -0.270 OA
ATOM      7  N   UNL     1       2.221   2.891   0.519  0.00  0.00    -0.297 N 
ATOM      8  N   UNL     1       3.277   0.078  -0.497  0.00  0.00    -0.310 N 
ATOM     10  C   UNL     1       4.563   2.240  -0.018  0.00  0.00    +0.027 C 
ATOM     11  C   UNL     1       2.847   2.203  -1.783  0.00  0.00    +0.054 C 
ATOM     12  C   UNL     1       4.304   2.553  -1.488  0.00  0.00    +0.018 C 
ATOM     13  C   UNL     1       3.627   3.069   0.881  0.00  0.00    +0.113 C 
ATOM     14  C   UNL     1       4.390   0.732   0.204  0.00  0.00    +0.130 C 
ATOM     15  C   UNL     1       1.920   3.072  -0.910  0.00  0.00    +0.117 C 
ATOM     16  C   UNL     1       2.572   0.735  -1.516  0.00  0.00    +0.027 A 
ATOM     17  C   UNL     1       1.632   0.083  -2.224  0.00  0.00    +0.024 A 
ATOM     18  C   UNL     1       3.023  -1.269  -0.166  0.00  0.00    +0.274 A 
ATOM     19  C   UNL     1       1.294   2.554   1.508  0.00  0.00    +0.247 C 
ATOM     20  C   UNL     1       1.959  -1.927  -0.966  0.00  0.00    +0.112 A 
ATOM     21  C   UNL     1       1.312  -1.290  -1.943  0.00  0.00    +0.031 A 
ENDROOT
BRANCH  19  22
ATOM     22  C   UNL     1      -0.099   2.341   1.101  0.00  0.00    +0.037 A 
ATOM     23  C   UNL     1      -0.524   1.069   0.727  0.00  0.00    +0.013 A 
ATOM     24  C   UNL     1      -0.989   3.412   1.089  0.00  0.00    +0.013 A 
ATOM     25  C   UNL     1      -1.849   0.866   0.339  0.00  0.00    +0.009 A 
ATOM     26  C   UNL     1      -2.313   3.209   0.702  0.00  0.00    +0.009 A 
ATOM     27  C   UNL     1      -2.743   1.937   0.327  0.00  0.00    -0.018 A 
BRANCH  27  29
ATOM     29  C   UNL     1      -4.117   1.726  -0.075  0.00  0.00    -0.018 A 
ATOM     32  C   UNL     1      -4.481   1.861  -1.414  0.00  0.00    +0.008 A 
ATOM     33  C   UNL     1      -5.078   1.389   0.878  0.00  0.00    +0.008 A 
ATOM     35  C   UNL     1      -5.806   1.658  -1.801  0.00  0.00    +0.001 A 
ATOM     36  C   UNL     1      -6.403   1.185   0.491  0.00  0.00    +0.001 A 
ATOM     37  C   UNL     1      -6.767   1.320  -0.849  0.00  0.00    +0.000 A 
ENDBRANCH  27  29
ENDBRANCH  19  22
BRANCH  20   9
ATOM      9  N   UNL     1       1.609  -3.265  -0.714  0.00  0.00    -0.211 N 
ATOM     38  H   UNL     1       1.115  -3.723  -1.493  0.00  0.00    +0.174 HD
BRANCH   9   1
ATOM      1  S   UNL     1       1.020  -3.630   0.830  0.00  0.00    +0.079 S 
ATOM      5  O   UNL     1       1.778  -4.730   1.395  0.00  0.00    -0.149 OA
ATOM      6  O   UNL     1       0.839  -2.405   1.585  0.00  0.00    -0.149 OA
BRANCH   1  28
ATOM      2  S   UNL     1      -0.589  -5.763  -0.356  0.00  0.00    -0.077 S 
ATOM     28  C   UNL     1      -0.588  -4.247   0.431  0.00  0.00    +0.146 A 
ATOM     30  C   UNL     1      -1.851  -3.753   0.626  0.00  0.00    +0.036 A 
ATOM     31  C   UNL     1      -2.848  -4.636   0.119  0.00  0.00    +0.010 A 
ATOM     34  C   UNL     1      -2.299  -5.768  -0.442  0.00  0.00    +0.047 A 
ENDBRANCH   1  28
ENDBRANCH   9   1
ENDBRANCH  20   9
TORSDOF 5
