REMARK  Name = 45360564
REMARK  7 active torsions:
REMARK  status: ('A' for Active; 'I' for Inactive)
REMARK    1  A    between atoms: O_3  and  C_9
REMARK    2  A    between atoms: O_4  and  C_21
REMARK    3  A    between atoms: N_5  and  C_8
REMARK    4  A    between atoms: N_6  and  C_10
REMARK    5  A    between atoms: N_6  and  C_18
REMARK    6  A    between atoms: N_7  and  C_19
REMARK    7  A    between atoms: C_18  and  C_20
REMARK                            x       y       z     vdW  Elec       q    Type
REMARK                         _______ _______ _______ _____ _____    ______ ____
ROOT
ATOM      1  O   UNL     1      -1.696  -1.520  -1.536  0.00  0.00    -0.343 OA
ATOM      2  O   UNL     1      -3.252  -2.618  -0.212  0.00  0.00    -0.347 OA
ATOM      8  C   UNL     1      -2.330  -0.525   0.571  0.00  0.00    +0.143 C 
ATOM      9  C   UNL     1      -1.182  -1.274   1.286  0.00  0.00    +0.156 C 
ATOM     10  C   UNL     1      -0.260  -2.070   0.330  0.00  0.00    +0.116 C 
ATOM     11  C   UNL     1      -1.014  -2.611  -0.906  0.00  0.00    +0.166 C 
ATOM     12  C   UNL     1      -2.811  -1.324  -0.655  0.00  0.00    +0.270 C 
ATOM     13  C   UNL     1      -2.189  -3.513  -0.573  0.00  0.00    +0.196 C 
ENDROOT
BRANCH   8   5
ATOM      5  N   UNL     1      -1.899   0.810   0.159  0.00  0.00    -0.290 NA
ATOM      7  N   UNL     1      -2.292   3.655  -0.168  0.00  0.00    -0.303 NA
ATOM     14  C   UNL     1      -1.857   1.722   1.308  0.00  0.00    +0.100 C 
ATOM     15  C   UNL     1      -2.780   1.343  -0.888  0.00  0.00    +0.100 C 
ATOM     16  C   UNL     1      -1.409   3.123   0.877  0.00  0.00    +0.099 C 
ATOM     17  C   UNL     1      -2.332   2.744  -1.318  0.00  0.00    +0.099 C 
ATOM     19  C   UNL     1      -1.863   4.991  -0.580  0.00  0.00    +0.105 C 
ENDBRANCH   8   5
BRANCH   9   3
ATOM      3  O   UNL     1      -1.777  -2.192   2.216  0.00  0.00    -0.388 OA
ATOM     27  H   UNL     1      -1.056  -2.619   2.709  0.00  0.00    +0.210 HD
ENDBRANCH   9   3
BRANCH  10   6
ATOM      6  N   UNL     1       0.845  -1.228  -0.140  0.00  0.00    -0.305 NA
ATOM     26  H   UNL     1       0.485  -0.312  -0.412  0.00  0.00    +0.123 HD
BRANCH   6  18
ATOM     18  C   UNL     1       1.854  -1.085   0.895  0.00  0.00    +0.120 C 
BRANCH  18  20
ATOM     20  C   UNL     1       3.001  -0.220   0.445  0.00  0.00    +0.008 A 
ATOM     21  C   UNL     1       3.970  -0.718  -0.427  0.00  0.00    +0.121 A 
ATOM     22  C   UNL     1       3.088   1.092   0.909  0.00  0.00    +0.008 A 
ATOM     23  C   UNL     1       5.026   0.097  -0.834  0.00  0.00    +0.046 A 
ATOM     24  C   UNL     1       4.145   1.907   0.502  0.00  0.00    +0.001 A 
ATOM     25  C   UNL     1       5.114   1.409  -0.369  0.00  0.00    +0.004 A 
BRANCH  21   4
ATOM      4  O   UNL     1       3.900  -1.997  -0.890  0.00  0.00    -0.506 OA
ATOM     28  H   UNL     1       4.655  -2.163  -1.480  0.00  0.00    +0.292 HD
ENDBRANCH  21   4
ENDBRANCH  18  20
ENDBRANCH   6  18
ENDBRANCH  10   6
TORSDOF 6
