REMARK  Name = 11867459
REMARK  14 active torsions:
REMARK  status: ('A' for Active; 'I' for Inactive)
REMARK    1  A    between atoms: O_2  and  C_15
REMARK    2  A    between atoms: O_3  and  C_20
REMARK    3  A    between atoms: N_7  and  C_26
REMARK    4  A    between atoms: C_10  and  C_18
REMARK    5  A    between atoms: C_12  and  C_20
REMARK    6  A    between atoms: C_12  and  C_21
REMARK    7  A    between atoms: C_13  and  C_23
REMARK    8  A    between atoms: C_23  and  C_24
REMARK    9  A    between atoms: C_26  and  C_29
REMARK   10  A    between atoms: C_27  and  C_28
REMARK   11  A    between atoms: C_28  and  C_30
REMARK   12  A    between atoms: C_30  and  C_31
REMARK   13  A    between atoms: C_30  and  C_32
REMARK   14  A    between atoms: C_30  and  C_33
REMARK                            x       y       z     vdW  Elec       q    Type
REMARK                         _______ _______ _______ _____ _____    ______ ____
ROOT
ATOM      1  S   UNL     1      -0.601   3.078  -0.393  0.00  0.00    -0.057 S 
ATOM      5  O   UNL     1       3.315   0.572  -0.713  0.00  0.00    -0.275 OA
ATOM      6  N   UNL     1       0.368   0.679  -0.401  0.00  0.00    -0.229 NA
ATOM      8  N   UNL     1       1.942   2.489  -0.640  0.00  0.00    -0.265 N 
ATOM     10  C   UNL     1      -3.168  -0.614   0.431  0.00  0.00    -0.019 C 
ATOM     11  C   UNL     1      -3.874   0.578  -0.354  0.00  0.00    +0.011 C 
ATOM     12  C   UNL     1      -5.447   0.660  -0.267  0.00  0.00    +0.021 C 
ATOM     13  C   UNL     1      -1.682  -0.766  -0.137  0.00  0.00    +0.054 C 
ATOM     14  C   UNL     1      -3.933  -1.935   0.159  0.00  0.00    +0.010 C 
ATOM     15  C   UNL     1      -6.048  -0.752  -0.517  0.00  0.00    +0.123 C 
ATOM     16  C   UNL     1      -3.159   1.936  -0.088  0.00  0.00    +0.049 C 
ATOM     17  C   UNL     1      -5.437  -1.831   0.370  0.00  0.00    +0.032 C 
ATOM     18  C   UNL     1      -3.112  -0.378   1.960  0.00  0.00    +0.012 C 
ATOM     19  C   UNL     1      -1.001   0.574  -0.241  0.00  0.00    +0.058 A 
ATOM     21  C   UNL     1      -5.969   1.592  -1.396  0.00  0.00    +0.016 C 
ATOM     22  C   UNL     1      -1.684   1.773  -0.235  0.00  0.00    +0.015 A 
ATOM     25  C   UNL     1       0.692   1.951  -0.485  0.00  0.00    +0.165 A 
ATOM     27  C   UNL     1       3.156   1.789  -0.743  0.00  0.00    +0.219 C 
ATOM     41  H   UNL     1       1.968   3.505  -0.679  0.00  0.00    +0.157 HD
ENDROOT
BRANCH  15   2
ATOM      2  O   UNL     1      -7.461  -0.739  -0.318  0.00  0.00    -0.391 OA
ATOM     38  H   UNL     1      -7.796  -1.627  -0.530  0.00  0.00    +0.210 HD
ENDBRANCH  15   2
BRANCH  12  20
ATOM     20  C   UNL     1      -5.985   1.262   1.050  0.00  0.00    +0.165 C 
BRANCH  20   3
ATOM      3  O   UNL     1      -7.393   1.279   0.974  0.00  0.00    -0.394 OA
ATOM     39  H   UNL     1      -7.723   1.668   1.801  0.00  0.00    +0.209 HD
ENDBRANCH  20   3
ENDBRANCH  12  20
BRANCH  13  23
ATOM     23  C   UNL     1      -0.812  -1.782   0.616  0.00  0.00    +0.106 C 
BRANCH  23  24
ATOM      4  O   UNL     1       0.428  -2.059  -1.443  0.00  0.00    -0.276 OA
ATOM      7  N   UNL     1       1.052  -3.265   0.442  0.00  0.00    -0.311 N 
ATOM     24  C   UNL     1       0.273  -2.360  -0.263  0.00  0.00    +0.214 C 
ATOM     40  H   UNL     1       0.846  -3.440   1.422  0.00  0.00    +0.149 HD
BRANCH   7  26
ATOM     26  C   UNL     1       2.165  -3.976  -0.146  0.00  0.00    +0.141 C 
BRANCH  26  29
ATOM      9  N   UNL     1       5.510  -2.430  -0.997  0.00  0.00    -0.263 NA
ATOM     29  C   UNL     1       3.454  -3.222   0.001  0.00  0.00    -0.012 A 
ATOM     34  C   UNL     1       3.805  -2.630   1.210  0.00  0.00    +0.008 A 
ATOM     35  C   UNL     1       4.333  -3.094  -1.062  0.00  0.00    +0.115 A 
ATOM     36  C   UNL     1       5.006  -1.939   1.317  0.00  0.00    +0.020 A 
ATOM     37  C   UNL     1       5.816  -1.869   0.194  0.00  0.00    +0.111 A 
ENDBRANCH  26  29
ENDBRANCH   7  26
ENDBRANCH  23  24
ENDBRANCH  13  23
BRANCH  27  28
ATOM     28  C   UNL     1       4.357   2.714  -0.900  0.00  0.00    +0.102 C 
BRANCH  28  30
ATOM     30  C   UNL     1       5.073   3.076   0.423  0.00  0.00    -0.029 C 
ATOM     31  C   UNL     1       6.291   3.957   0.080  0.00  0.00    +0.011 C 
ATOM     32  C   UNL     1       5.574   1.814   1.146  0.00  0.00    +0.011 C 
ATOM     33  C   UNL     1       4.153   3.868   1.365  0.00  0.00    +0.011 C 
ENDBRANCH  28  30
ENDBRANCH  27  28
TORSDOF 9
