REMARK  Name = 45784091
REMARK  12 active torsions:
REMARK  status: ('A' for Active; 'I' for Inactive)
REMARK    1  A    between atoms: N_2  and  C_15
REMARK    2  A    between atoms: N_2  and  C_21
REMARK    3  A    between atoms: N_5  and  C_31
REMARK    4  A    between atoms: C_8  and  C_12
REMARK    5  A    between atoms: C_9  and  C_15
REMARK    6  A    between atoms: C_11  and  C_16
REMARK    7  A    between atoms: C_12  and  C_17
REMARK    8  A    between atoms: C_12  and  C_18
REMARK    9  A    between atoms: C_13  and  C_19
REMARK   10  A    between atoms: C_16  and  C_20
REMARK   11  A    between atoms: C_21  and  C_22
REMARK   12  A    between atoms: C_23  and  C_26
REMARK                            x       y       z     vdW  Elec       q    Type
REMARK                         _______ _______ _______ _____ _____    ______ ____
ROOT
ATOM      8  C   UNL     1      -1.096  -1.901  -0.856  0.00  0.00    +0.000 C 
ATOM      9  C   UNL     1      -1.986  -2.612   0.190  0.00  0.00    +0.029 C 
ATOM     10  C   UNL     1       0.264  -1.536  -0.246  0.00  0.00    +0.012 C 
ATOM     11  C   UNL     1       1.021  -2.752   0.331  0.00  0.00    +0.024 C 
ATOM     13  C   UNL     1       0.109  -3.735   1.050  0.00  0.00    -0.073 C 
ATOM     14  C   UNL     1      -1.232  -3.648   0.984  0.00  0.00    -0.023 C 
ATOM     19  C   UNL     1       0.760  -4.863   1.802  0.00  0.00    +0.039 C 
ENDROOT
BRANCH   8  12
ATOM     12  C   UNL     1      -0.927  -2.756  -2.119  0.00  0.00    -0.013 C 
ATOM     17  C   UNL     1      -2.289  -3.137  -2.691  0.00  0.00    +0.007 C 
ATOM     18  C   UNL     1      -0.094  -2.011  -3.158  0.00  0.00    +0.007 C 
ENDBRANCH   8  12
BRANCH   9  15
ATOM     15  C   UNL     1      -2.635  -1.613   1.154  0.00  0.00    +0.089 C 
BRANCH  15   2
ATOM      2  N   UNL     1      -3.391  -0.611   0.423  0.00  0.00    -0.311 NA
ATOM     32  H   UNL     1      -4.107  -1.052  -0.153  0.00  0.00    +0.122 HD
BRANCH   2  21
ATOM     21  C   UNL     1      -4.004   0.350   1.332  0.00  0.00    +0.117 C 
BRANCH  21  22
ATOM      6  N   UNL     1      -6.047   3.062  -0.342  0.00  0.00    -0.263 NA
ATOM     22  C   UNL     1      -4.355   1.637   0.633  0.00  0.00    -0.016 A 
ATOM     24  C   UNL     1      -3.375   2.570   0.316  0.00  0.00    +0.008 A 
ATOM     25  C   UNL     1      -5.665   1.928   0.286  0.00  0.00    +0.115 A 
ATOM     27  C   UNL     1      -3.729   3.750  -0.331  0.00  0.00    +0.020 A 
ATOM     29  C   UNL     1      -5.066   3.946  -0.635  0.00  0.00    +0.111 A 
ENDBRANCH  21  22
ENDBRANCH   2  21
ENDBRANCH  15   2
ENDBRANCH   9  15
BRANCH  11  16
ATOM     16  C   UNL     1       2.164  -2.241   1.218  0.00  0.00    +0.105 C 
BRANCH  16  20
ATOM      1  O   UNL     1       2.889   0.044   0.764  0.00  0.00    -0.419 OA
ATOM      3  N   UNL     1       3.965  -1.512  -0.430  0.00  0.00    -0.112 NA
ATOM      4  N   UNL     1       4.471  -0.275  -0.785  0.00  0.00    -0.106 NA
ATOM     20  C   UNL     1       3.045  -1.277   0.476  0.00  0.00    +0.218 A 
ATOM     23  C   UNL     1       3.814   0.603  -0.064  0.00  0.00    +0.266 A 
BRANCH  23  26
ATOM      5  N   UNL     1       3.380   2.940   0.597  0.00  0.00    -0.329 N 
ATOM      7  N   UNL     1       4.820   4.061  -0.668  0.00  0.00    -0.243 NA
ATOM     26  C   UNL     1       4.044   1.998  -0.139  0.00  0.00    +0.125 A 
ATOM     28  C   UNL     1       4.927   2.714  -0.911  0.00  0.00    +0.143 A 
ATOM     30  C   UNL     1       3.880   4.162   0.245  0.00  0.00    +0.199 A 
ATOM     31  C   UNL     1       2.339   2.712   1.572  0.00  0.00    +0.150 C 
ENDBRANCH  23  26
ENDBRANCH  16  20
ENDBRANCH  11  16
TORSDOF 8
