REMARK  Name = 7127962
REMARK  15 active torsions:
REMARK  status: ('A' for Active; 'I' for Inactive)
REMARK    1  A    between atoms: S_1  and  C_20
REMARK    2  A    between atoms: S_1  and  C_26
REMARK    3  A    between atoms: S_2  and  C_30
REMARK    4  A    between atoms: S_2  and  C_33
REMARK    5  A    between atoms: O_6  and  C_22
REMARK    6  A    between atoms: O_6  and  C_29
REMARK    7  A    between atoms: N_9  and  C_13
REMARK    8  A    between atoms: N_10  and  C_18
REMARK    9  A    between atoms: N_11  and  C_25
REMARK   10  A    between atoms: C_12  and  C_16
REMARK   11  A    between atoms: C_17  and  C_20
REMARK   12  A    between atoms: C_18  and  C_19
REMARK   13  A    between atoms: C_18  and  C_22
REMARK   14  A    between atoms: C_19  and  C_23
REMARK   15  A    between atoms: C_19  and  C_24
REMARK                            x       y       z     vdW  Elec       q    Type
REMARK                         _______ _______ _______ _____ _____    ______ ____
ROOT
ATOM      4  O   UNL     1      -5.077   0.709   0.716  0.00  0.00    -0.275 OA
ATOM      8  N   UNL     1      -3.248   1.480  -0.474  0.00  0.00    -0.287 N 
ATOM     12  C   UNL     1      -2.881   0.196  -1.054  0.00  0.00    +0.164 C 
ATOM     13  C   UNL     1      -1.250   1.856  -1.702  0.00  0.00    +0.094 C 
ATOM     14  C   UNL     1      -1.869   0.529  -2.148  0.00  0.00    +0.055 C 
ATOM     15  C   UNL     1      -2.394   2.556  -0.976  0.00  0.00    +0.131 C 
ATOM     17  C   UNL     1      -4.381   1.640   0.310  0.00  0.00    +0.226 C 
ENDROOT
BRANCH  13   9
ATOM      5  O   UNL     1       1.494   1.664  -2.502  0.00  0.00    -0.253 OA
ATOM      9  N   UNL     1      -0.112   1.655  -0.839  0.00  0.00    -0.295 N 
ATOM     11  N   UNL     1       2.092   1.375  -0.250  0.00  0.00    -0.269 N 
ATOM     21  C   UNL     1       1.204   1.572  -1.312  0.00  0.00    +0.304 C 
ATOM     34  H   UNL     1      -0.277   1.516   0.153  0.00  0.00    +0.151 HD
ATOM     36  H   UNL     1       1.687   1.330   0.682  0.00  0.00    +0.156 HD
BRANCH  11  25
ATOM     25  C   UNL     1       3.498   1.240  -0.308  0.00  0.00    +0.036 A 
ATOM     27  C   UNL     1       4.231   1.046   0.863  0.00  0.00    +0.038 A 
ATOM     28  C   UNL     1       4.154   1.301  -1.538  0.00  0.00    +0.023 A 
ATOM     30  C   UNL     1       5.618   0.914   0.804  0.00  0.00    +0.009 A 
ATOM     31  C   UNL     1       5.541   1.169  -1.597  0.00  0.00    +0.003 A 
ATOM     32  C   UNL     1       6.273   0.975  -0.426  0.00  0.00    +0.015 A 
BRANCH  30   2
ATOM      2  S   UNL     1       6.554   0.664   2.300  0.00  0.00    -0.129 S 
ATOM     33  C   UNL     1       5.843  -0.884   2.926  0.00  0.00    +0.090 C 
ENDBRANCH  30   2
ENDBRANCH  11  25
ENDBRANCH  13   9
BRANCH  12  16
ATOM      3  O   UNL     1      -2.150  -0.263   1.172  0.00  0.00    -0.274 OA
ATOM     10  N   UNL     1      -1.867  -1.893  -0.466  0.00  0.00    -0.301 N 
ATOM     16  C   UNL     1      -2.272  -0.660   0.017  0.00  0.00    +0.234 C 
ATOM     35  H   UNL     1      -2.033  -2.122  -1.442  0.00  0.00    +0.150 HD
BRANCH  10  18
ATOM     18  C   UNL     1      -1.230  -2.893   0.359  0.00  0.00    +0.184 C 
BRANCH  18  19
ATOM     19  C   UNL     1       0.307  -2.747   0.384  0.00  0.00    +0.014 C 
ATOM     23  C   UNL     1       0.790  -1.584   1.257  0.00  0.00    +0.009 C 
ATOM     24  C   UNL     1       0.874  -2.608  -1.032  0.00  0.00    +0.009 C 
ENDBRANCH  18  19
BRANCH  18  22
ATOM      7  O   UNL     1      -2.349  -4.531  -1.026  0.00  0.00    -0.249 OA
ATOM     22  C   UNL     1      -1.646  -4.303  -0.046  0.00  0.00    +0.328 C 
BRANCH  22   6
ATOM      6  O   UNL     1      -1.151  -5.250   0.800  0.00  0.00    -0.467 OA
ATOM     29  C   UNL     1      -1.498  -6.604   0.490  0.00  0.00    +0.280 C 
ENDBRANCH  22   6
ENDBRANCH  18  22
ENDBRANCH  10  18
ENDBRANCH  12  16
BRANCH  17  20
ATOM     20  C   UNL     1      -4.728   3.063   0.668  0.00  0.00    +0.164 C 
BRANCH  20   1
ATOM      1  S   UNL     1      -3.900   3.455   2.216  0.00  0.00    -0.155 S 
ATOM     26  C   UNL     1      -4.466   5.163   2.412  0.00  0.00    +0.085 C 
ENDBRANCH  20   1
ENDBRANCH  17  20
TORSDOF 10
