REMARK  Name = 45360924
REMARK  10 active torsions:
REMARK  status: ('A' for Active; 'I' for Inactive)
REMARK    1  A    between atoms: O_4  and  C_29
REMARK    2  A    between atoms: N_6  and  C_17
REMARK    3  A    between atoms: N_7  and  C_19
REMARK    4  A    between atoms: N_9  and  C_28
REMARK    5  A    between atoms: C_14  and  C_18
REMARK    6  A    between atoms: C_17  and  C_21
REMARK    7  A    between atoms: C_18  and  C_20
REMARK    8  A    between atoms: C_20  and  C_22
REMARK    9  A    between atoms: C_27  and  C_29
REMARK   10  A    between atoms: C_28  and  C_30
REMARK                            x       y       z     vdW  Elec       q    Type
REMARK                         _______ _______ _______ _____ _____    ______ ____
ROOT
ATOM      2  O   UNL     1       1.857  -2.650   0.688  0.00  0.00    -0.274 OA
ATOM      6  N   UNL     1       2.033  -0.058  -0.053  0.00  0.00    -0.286 NA
ATOM      7  N   UNL     1      -1.228  -1.262  -1.195  0.00  0.00    -0.296 NA
ATOM      8  N   UNL     1      -0.362  -2.552   1.236  0.00  0.00    -0.312 N 
ATOM     10  C   UNL     1      -0.281  -0.208  -0.768  0.00  0.00    +0.084 C 
ATOM     11  C   UNL     1       0.707  -0.525   0.393  0.00  0.00    +0.161 C 
ATOM     12  C   UNL     1       0.673   0.263  -1.882  0.00  0.00    +0.036 C 
ATOM     13  C   UNL     1       1.810   0.910  -1.121  0.00  0.00    +0.087 C 
ATOM     14  C   UNL     1      -2.212  -1.665  -0.152  0.00  0.00    +0.074 C 
ATOM     15  C   UNL     1       0.814  -2.002   0.764  0.00  0.00    +0.232 C 
ATOM     16  C   UNL     1      -1.625  -1.840   1.262  0.00  0.00    +0.123 C 
ATOM     19  C   UNL     1      -1.927  -0.870  -2.431  0.00  0.00    +0.105 C 
ATOM     36  H   UNL     1      -0.353  -3.526   1.522  0.00  0.00    +0.149 HD
ENDROOT
BRANCH   6  17
ATOM     17  C   UNL     1       2.844   0.492   1.026  0.00  0.00    +0.120 C 
BRANCH  17  21
ATOM     21  C   UNL     1       4.311   0.478   0.689  0.00  0.00    -0.033 A 
ATOM     23  C   UNL     1       5.029  -0.717   0.751  0.00  0.00    +0.006 A 
ATOM     24  C   UNL     1       4.952   1.658   0.313  0.00  0.00    +0.006 A 
ATOM     25  C   UNL     1       6.388  -0.730   0.439  0.00  0.00    +0.015 A 
ATOM     26  C   UNL     1       6.311   1.645   0.001  0.00  0.00    +0.015 A 
ATOM     27  C   UNL     1       7.029   0.450   0.063  0.00  0.00    +0.059 A 
BRANCH  27  29
ATOM      5  O   UNL     1       9.176  -0.560  -0.243  0.00  0.00    -0.245 OA
ATOM     29  C   UNL     1       8.446   0.437  -0.264  0.00  0.00    +0.337 C 
BRANCH  29   4
ATOM      4  O   UNL     1       8.913   1.668  -0.609  0.00  0.00    -0.477 OA
ATOM     38  H   UNL     1       9.869   1.648  -0.828  0.00  0.00    +0.295 HD
ENDBRANCH  29   4
ENDBRANCH  27  29
ENDBRANCH  17  21
ENDBRANCH   6  17
BRANCH  14  18
ATOM     18  C   UNL     1      -2.894  -2.995  -0.539  0.00  0.00    +0.029 C 
BRANCH  18  20
ATOM     20  C   UNL     1      -4.249  -3.119   0.134  0.00  0.00    +0.097 C 
BRANCH  20  22
ATOM      3  O   UNL     1      -5.519  -1.776  -1.431  0.00  0.00    -0.276 OA
ATOM      9  N   UNL     1      -5.585  -1.244   0.828  0.00  0.00    -0.311 N 
ATOM     22  C   UNL     1      -5.179  -1.989  -0.270  0.00  0.00    +0.213 C 
ATOM     37  H   UNL     1      -5.236  -1.471   1.754  0.00  0.00    +0.149 HD
BRANCH   9  28
ATOM     28  C   UNL     1      -6.473  -0.112   0.706  0.00  0.00    +0.139 C 
BRANCH  28  30
ATOM      1  F   UNL     1      -3.646   4.696  -0.095  0.00  0.00    -0.205 F 
ATOM     30  C   UNL     1      -5.718   1.172   0.491  0.00  0.00    -0.030 A 
ATOM     31  C   UNL     1      -5.317   1.937   1.587  0.00  0.00    +0.008 A 
ATOM     32  C   UNL     1      -5.419   1.599  -0.803  0.00  0.00    +0.008 A 
ATOM     33  C   UNL     1      -4.617   3.127   1.390  0.00  0.00    +0.038 A 
ATOM     34  C   UNL     1      -4.720   2.789  -1.001  0.00  0.00    +0.038 A 
ATOM     35  C   UNL     1      -4.319   3.553   0.095  0.00  0.00    +0.123 A 
ENDBRANCH  28  30
ENDBRANCH   9  28
ENDBRANCH  20  22
ENDBRANCH  18  20
ENDBRANCH  14  18
TORSDOF 9
