REMARK  Name = 25338626
REMARK  9 active torsions:
REMARK  status: ('A' for Active; 'I' for Inactive)
REMARK    1  A    between atoms: O_4  and  C_19
REMARK    2  A    between atoms: O_4  and  C_23
REMARK    3  A    between atoms: O_5  and  C_27
REMARK    4  A    between atoms: N_7  and  C_16
REMARK    5  A    between atoms: N_8  and  C_11
REMARK    6  A    between atoms: C_12  and  C_15
REMARK    7  A    between atoms: C_17  and  C_19
REMARK    8  A    between atoms: C_18  and  C_20
REMARK    9  A    between atoms: C_23  and  C_27
REMARK                            x       y       z     vdW  Elec       q    Type
REMARK                         _______ _______ _______ _____ _____    ______ ____
ROOT
ATOM      7  N   UNL     1       0.301  -3.280   1.094  0.00  0.00    -0.293 NA
ATOM     11  C   UNL     1      -1.645  -2.947  -0.146  0.00  0.00    +0.089 C 
ATOM     12  C   UNL     1       0.791  -3.073  -0.282  0.00  0.00    +0.147 C 
ATOM     13  C   UNL     1      -0.468  -2.701  -1.089  0.00  0.00    +0.052 C 
ATOM     14  C   UNL     1      -1.059  -3.812   0.960  0.00  0.00    +0.107 C 
ATOM     16  C   UNL     1       1.155  -4.162   1.881  0.00  0.00    +0.105 C 
ENDROOT
BRANCH  12  15
ATOM      2  O   UNL     1       3.057  -2.425  -0.929  0.00  0.00    -0.336 OA
ATOM      9  N   UNL     1       1.856  -0.768  -0.019  0.00  0.00    -0.190 NA
ATOM     10  N   UNL     1       3.892  -1.301  -0.916  0.00  0.00    -0.056 NA
ATOM     15  C   UNL     1       1.878  -2.025  -0.384  0.00  0.00    +0.245 A 
ATOM     18  C   UNL     1       3.113  -0.365  -0.365  0.00  0.00    +0.202 A 
BRANCH  18  20
ATOM      1  F   UNL     1       4.845   4.855   0.474  0.00  0.00    -0.205 F 
ATOM     20  C   UNL     1       3.560   0.981  -0.149  0.00  0.00    +0.023 A 
ATOM     21  C   UNL     1       2.701   1.916   0.429  0.00  0.00    +0.014 A 
ATOM     22  C   UNL     1       4.853   1.354  -0.516  0.00  0.00    +0.014 A 
ATOM     24  C   UNL     1       3.135   3.224   0.639  0.00  0.00    +0.039 A 
ATOM     25  C   UNL     1       5.287   2.663  -0.305  0.00  0.00    +0.039 A 
ATOM     26  C   UNL     1       4.428   3.598   0.272  0.00  0.00    +0.123 A 
ENDBRANCH  18  20
ENDBRANCH  12  15
BRANCH  11   8
ATOM      3  O   UNL     1      -3.801  -1.365  -1.246  0.00  0.00    -0.273 OA
ATOM      8  N   UNL     1      -2.174  -1.711   0.379  0.00  0.00    -0.309 N 
ATOM     17  C   UNL     1      -3.216  -1.021  -0.223  0.00  0.00    +0.239 C 
ATOM     28  H   UNL     1      -1.722  -1.306   1.194  0.00  0.00    +0.149 HD
BRANCH  17  19
ATOM     19  C   UNL     1      -3.567   0.239   0.539  0.00  0.00    +0.256 C 
BRANCH  19   4
ATOM      4  O   UNL     1      -4.637   0.916  -0.085  0.00  0.00    -0.359 OA
BRANCH   4  23
ATOM     23  C   UNL     1      -4.990   2.108   0.612  0.00  0.00    +0.280 C 
BRANCH  23  27
ATOM      6  O   UNL     1      -6.669   2.406  -1.119  0.00  0.00    -0.248 OA
ATOM     27  C   UNL     1      -6.131   2.789  -0.090  0.00  0.00    +0.331 C 
BRANCH  27   5
ATOM      5  O   UNL     1      -6.494   3.910   0.583  0.00  0.00    -0.479 OA
ATOM     29  H   UNL     1      -7.238   4.375   0.146  0.00  0.00    +0.295 HD
ENDBRANCH  27   5
ENDBRANCH  23  27
ENDBRANCH   4  23
ENDBRANCH  19   4
ENDBRANCH  17  19
ENDBRANCH  11   8
TORSDOF 8
