REMARK  Name = 24094071
REMARK  12 active torsions:
REMARK  status: ('A' for Active; 'I' for Inactive)
REMARK    1  A    between atoms: O_1  and  C_14
REMARK    2  A    between atoms: O_1  and  C_23
REMARK    3  A    between atoms: O_2  and  C_15
REMARK    4  A    between atoms: O_3  and  C_19
REMARK    5  A    between atoms: N_6  and  C_25
REMARK    6  A    between atoms: N_7  and  C_24
REMARK    7  A    between atoms: C_8  and  C_18
REMARK    8  A    between atoms: C_10  and  C_19
REMARK    9  A    between atoms: C_10  and  C_20
REMARK   10  A    between atoms: C_11  and  C_21
REMARK   11  A    between atoms: C_21  and  C_22
REMARK   12  A    between atoms: C_25  and  C_31
REMARK                            x       y       z     vdW  Elec       q    Type
REMARK                         _______ _______ _______ _____ _____    ______ ____
ROOT
ATOM      8  C   UNL     1       0.392   0.829   0.680  0.00  0.00    -0.023 C 
ATOM      9  C   UNL     1      -0.120   0.481  -0.775  0.00  0.00    +0.007 C 
ATOM     10  C   UNL     1      -1.683   0.692  -0.994  0.00  0.00    +0.031 C 
ATOM     11  C   UNL     1       1.910   0.415   0.869  0.00  0.00    +0.032 C 
ATOM     12  C   UNL     1      -0.489   0.074   1.717  0.00  0.00    +0.011 C 
ATOM     13  C   UNL     1       0.292  -0.966  -1.186  0.00  0.00    +0.007 C 
ATOM     14  C   UNL     1      -2.481  -0.025   0.133  0.00  0.00    +0.186 C 
ATOM     15  C   UNL     1       2.168  -1.051   0.476  0.00  0.00    +0.119 C 
ATOM     16  C   UNL     1      -1.989   0.305   1.542  0.00  0.00    +0.046 C 
ATOM     17  C   UNL     1       1.756  -1.310  -0.960  0.00  0.00    +0.032 C 
ATOM     18  C   UNL     1       0.306   2.346   0.997  0.00  0.00    +0.012 C 
ATOM     20  C   UNL     1      -2.130   0.112  -2.366  0.00  0.00    +0.017 C 
ENDROOT
BRANCH  15   2
ATOM      2  O   UNL     1       3.544  -1.392   0.621  0.00  0.00    -0.391 OA
ATOM     37  H   UNL     1       3.645  -2.328   0.378  0.00  0.00    +0.210 HD
ENDBRANCH  15   2
BRANCH  14   1
ATOM      1  O   UNL     1      -3.870   0.302   0.080  0.00  0.00    -0.446 OA
BRANCH   1  23
ATOM      5  O   UNL     1      -4.384  -1.762   0.945  0.00  0.00    -0.226 OA
ATOM      7  N   UNL     1      -6.032  -0.217   0.414  0.00  0.00    -0.278 N 
ATOM     23  C   UNL     1      -4.732  -0.665   0.521  0.00  0.00    +0.401 C 
ATOM     40  H   UNL     1      -6.178   0.699   0.001  0.00  0.00    +0.152 HD
BRANCH   7  24
ATOM     24  C   UNL     1      -7.185  -1.002   0.797  0.00  0.00    +0.076 C 
ATOM     26  C   UNL     1      -8.310  -0.105   1.325  0.00  0.00    +0.022 C 
ATOM     27  C   UNL     1      -7.669  -1.874  -0.366  0.00  0.00    +0.022 C 
ATOM     28  C   UNL     1      -8.977   0.710   0.217  0.00  0.00    +0.002 C 
ATOM     29  C   UNL     1      -8.338  -1.056  -1.471  0.00  0.00    +0.002 C 
ATOM     30  C   UNL     1      -9.461  -0.181  -0.923  0.00  0.00    +0.000 C 
ENDBRANCH   7  24
ENDBRANCH   1  23
ENDBRANCH  14   1
BRANCH  10  19
ATOM     19  C   UNL     1      -2.057   2.193  -1.073  0.00  0.00    +0.166 C 
BRANCH  19   3
ATOM      3  O   UNL     1      -1.048   2.846  -1.809  0.00  0.00    -0.394 OA
ATOM     38  H   UNL     1      -1.287   3.787  -1.855  0.00  0.00    +0.209 HD
ENDBRANCH  19   3
ENDBRANCH  10  19
BRANCH  11  21
ATOM     21  C   UNL     1       2.894   1.355   0.135  0.00  0.00    +0.102 C 
BRANCH  21  22
ATOM      4  O   UNL     1       4.507   1.035   1.911  0.00  0.00    -0.276 OA
ATOM      6  N   UNL     1       5.237   1.542  -0.237  0.00  0.00    -0.311 N 
ATOM     22  C   UNL     1       4.276   1.284   0.731  0.00  0.00    +0.214 C 
ATOM     39  H   UNL     1       4.949   1.732  -1.192  0.00  0.00    +0.149 HD
BRANCH   6  25
ATOM     25  C   UNL     1       6.655   1.546   0.040  0.00  0.00    +0.139 C 
BRANCH  25  31
ATOM     31  C   UNL     1       7.268   0.185  -0.153  0.00  0.00    -0.030 A 
ATOM     32  C   UNL     1       7.327  -0.711   0.914  0.00  0.00    +0.005 A 
ATOM     33  C   UNL     1       7.777  -0.181  -1.400  0.00  0.00    +0.005 A 
ATOM     34  C   UNL     1       7.895  -1.973   0.735  0.00  0.00    +0.000 A 
ATOM     35  C   UNL     1       8.345  -1.442  -1.578  0.00  0.00    +0.000 A 
ATOM     36  C   UNL     1       8.404  -2.338  -0.511  0.00  0.00    +0.000 A 
ENDBRANCH  25  31
ENDBRANCH   6  25
ENDBRANCH  21  22
ENDBRANCH  11  21
TORSDOF 10
