REMARK  Name = 75536589
REMARK  9 active torsions:
REMARK  status: ('A' for Active; 'I' for Inactive)
REMARK    1  A    between atoms: O_3  and  C_9
REMARK    2  A    between atoms: O_5  and  C_17
REMARK    3  A    between atoms: O_5  and  C_20
REMARK    4  A    between atoms: N_6  and  C_8
REMARK    5  A    between atoms: N_6  and  C_13
REMARK    6  A    between atoms: N_7  and  C_12
REMARK    7  A    between atoms: C_10  and  C_12
REMARK    8  A    between atoms: C_13  and  C_14
REMARK    9  A    between atoms: C_15  and  C_17
REMARK                            x       y       z     vdW  Elec       q    Type
REMARK                         _______ _______ _______ _____ _____    ______ ____
ROOT
ATOM      2  O   UNL     1       0.917   1.172  -0.308  0.00  0.00    -0.371 OA
ATOM      8  C   UNL     1      -1.045  -0.015   0.313  0.00  0.00    +0.111 C 
ATOM      9  C   UNL     1      -0.064  -0.980  -0.329  0.00  0.00    +0.164 C 
ATOM     10  C   UNL     1       1.245  -0.220  -0.165  0.00  0.00    +0.165 C 
ATOM     11  C   UNL     1      -0.507   1.323  -0.166  0.00  0.00    +0.181 C 
ENDROOT
BRANCH   9   3
ATOM      3  O   UNL     1      -0.030  -2.236   0.321  0.00  0.00    -0.388 OA
ATOM     22  H   UNL     1       0.179  -2.089   1.259  0.00  0.00    +0.210 HD
ENDBRANCH   9   3
BRANCH   8   6
ATOM      6  N   UNL     1      -2.427  -0.242  -0.077  0.00  0.00    -0.304 NA
ATOM     21  H   UNL     1      -2.624  -1.242  -0.028  0.00  0.00    +0.123 HD
BRANCH   6  13
ATOM     13  C   UNL     1      -3.345   0.469   0.805  0.00  0.00    +0.124 C 
BRANCH  13  14
ATOM      1  S   UNL     1      -5.753   1.612   0.012  0.00  0.00    -0.100 S 
ATOM     14  C   UNL     1      -4.781   0.258   0.406  0.00  0.00    +0.004 A 
ATOM     16  C   UNL     1      -5.478  -0.926   0.302  0.00  0.00    +0.012 A 
ATOM     18  C   UNL     1      -6.827  -0.719  -0.106  0.00  0.00    +0.008 A 
ATOM     19  C   UNL     1      -7.111   0.615  -0.298  0.00  0.00    +0.045 A 
ENDBRANCH  13  14
ENDBRANCH   6  13
ENDBRANCH   8   6
BRANCH  10  12
ATOM     12  C   UNL     1       2.296  -0.607  -1.189  0.00  0.00    +0.138 C 
BRANCH  12   7
ATOM      4  O   UNL     1       4.553  -1.342   0.465  0.00  0.00    -0.273 OA
ATOM      7  N   UNL     1       3.509   0.136  -0.999  0.00  0.00    -0.311 N 
ATOM     15  C   UNL     1       4.548  -0.297  -0.180  0.00  0.00    +0.239 C 
ATOM     23  H   UNL     1       3.600   1.025  -1.482  0.00  0.00    +0.149 HD
BRANCH  15  17
ATOM     17  C   UNL     1       5.704   0.680  -0.165  0.00  0.00    +0.255 C 
BRANCH  17   5
ATOM      5  O   UNL     1       6.745   0.208   0.662  0.00  0.00    -0.374 OA
ATOM     20  C   UNL     1       7.848   1.109   0.695  0.00  0.00    +0.194 C 
ENDBRANCH  17   5
ENDBRANCH  15  17
ENDBRANCH  12   7
ENDBRANCH  10  12
TORSDOF 8
