REMARK  Name = 26744178
REMARK  7 active torsions:
REMARK  status: ('A' for Active; 'I' for Inactive)
REMARK    1  A    between atoms: O_1  and  C_10
REMARK    2  A    between atoms: O_4  and  C_28
REMARK    3  A    between atoms: O_4  and  C_29
REMARK    4  A    between atoms: N_5  and  C_12
REMARK    5  A    between atoms: C_8  and  C_13
REMARK    6  A    between atoms: C_12  and  C_14
REMARK    7  A    between atoms: C_17  and  C_19
REMARK                            x       y       z     vdW  Elec       q    Type
REMARK                         _______ _______ _______ _____ _____    ______ ____
ROOT
ATOM      5  N   UNL     1       3.369   0.145   0.587  0.00  0.00    -0.282 NA
ATOM      8  C   UNL     1       3.203  -0.809  -0.529  0.00  0.00    +0.149 C 
ATOM      9  C   UNL     1       3.963  -2.072  -0.083  0.00  0.00    +0.061 C 
ATOM     10  C   UNL     1       4.559  -1.716   1.274  0.00  0.00    +0.130 C 
ATOM     11  C   UNL     1       4.628  -0.201   1.244  0.00  0.00    +0.117 C 
ENDROOT
BRANCH   8  13
ATOM      2  O   UNL     1       1.470  -1.441  -2.131  0.00  0.00    -0.336 OA
ATOM      6  N   UNL     1       0.701  -1.025  -0.069  0.00  0.00    -0.190 NA
ATOM      7  N   UNL     1       0.084  -1.638  -2.185  0.00  0.00    -0.056 NA
ATOM     13  C   UNL     1       1.750  -1.083  -0.851  0.00  0.00    +0.245 A 
ATOM     17  C   UNL     1      -0.297  -1.374  -0.932  0.00  0.00    +0.202 A 
BRANCH  17  19
ATOM     19  C   UNL     1      -1.666  -1.450  -0.509  0.00  0.00    +0.023 A 
ATOM     24  C   UNL     1      -2.005  -1.165   0.814  0.00  0.00    +0.015 A 
ATOM     25  C   UNL     1      -2.657  -1.811  -1.421  0.00  0.00    +0.015 A 
ATOM     26  C   UNL     1      -3.336  -1.240   1.224  0.00  0.00    +0.046 A 
ATOM     27  C   UNL     1      -3.988  -1.887  -1.010  0.00  0.00    +0.046 A 
ATOM     28  C   UNL     1      -4.327  -1.602   0.312  0.00  0.00    +0.120 A 
BRANCH  28   4
ATOM      4  O   UNL     1      -5.626  -1.676   0.712  0.00  0.00    -0.495 OA
ATOM     29  C   UNL     1      -5.903  -1.371   2.078  0.00  0.00    +0.277 C 
ENDBRANCH  28   4
ENDBRANCH  17  19
ENDBRANCH   8  13
BRANCH  10   1
ATOM      1  O   UNL     1       5.839  -2.297   1.428  0.00  0.00    -0.390 OA
ATOM     30  H   UNL     1       5.732  -3.261   1.362  0.00  0.00    +0.210 HD
ENDBRANCH  10   1
BRANCH   5  12
ATOM     12  C   UNL     1       3.337   1.538   0.161  0.00  0.00    +0.159 C 
BRANCH  12  14
ATOM      3  O   UNL     1       1.093   1.950   1.006  0.00  0.00    -0.458 OA
ATOM     14  C   UNL     1       1.930   2.024  -0.062  0.00  0.00    +0.120 A 
ATOM     15  C   UNL     1       1.280   2.549  -1.155  0.00  0.00    +0.054 A 
ATOM     16  C   UNL     1      -0.051   2.818  -0.739  0.00  0.00    +0.020 A 
ATOM     18  C   UNL     1      -0.114   2.433   0.597  0.00  0.00    +0.135 A 
ATOM     20  C   UNL     1      -1.207   3.344  -1.341  0.00  0.00    +0.011 A 
ATOM     21  C   UNL     1      -1.258   2.535   1.386  0.00  0.00    +0.047 A 
ATOM     22  C   UNL     1      -2.373   3.458  -0.573  0.00  0.00    +0.001 A 
ATOM     23  C   UNL     1      -2.396   3.060   0.766  0.00  0.00    +0.004 A 
ENDBRANCH  12  14
ENDBRANCH   5  12
TORSDOF 6
