REMARK  Name = 7687210
REMARK  4 active torsions:
REMARK  status: ('A' for Active; 'I' for Inactive)
REMARK    1  A    between atoms: S_2  and  N_6
REMARK    2  A    between atoms: S_2  and  C_18
REMARK    3  A    between atoms: C_15  and  C_20
REMARK    4  A    between atoms: C_23  and  C_27
REMARK                            x       y       z     vdW  Elec       q    Type
REMARK                         _______ _______ _______ _____ _____    ______ ____
ROOT
ATOM      5  O   UNL     1      -4.085   2.900  -0.338  0.00  0.00    -0.268 OA
ATOM      6  N   UNL     1       0.425   0.805  -0.102  0.00  0.00    -0.176 NA
ATOM      7  N   UNL     1      -2.677   1.175   0.386  0.00  0.00    -0.311 N 
ATOM      8  C   UNL     1      -0.706   1.631   1.962  0.00  0.00    +0.025 C 
ATOM      9  C   UNL     1      -1.138  -0.650   1.170  0.00  0.00    +0.052 C 
ATOM     10  C   UNL     1      -0.935   0.202   2.420  0.00  0.00    +0.017 C 
ATOM     11  C   UNL     1       0.537   1.727   1.063  0.00  0.00    +0.114 C 
ATOM     12  C   UNL     1       0.137  -0.602   0.306  0.00  0.00    +0.119 C 
ATOM     13  C   UNL     1      -1.974   2.122   1.262  0.00  0.00    +0.130 C 
ATOM     14  C   UNL     1      -2.354  -0.198   0.354  0.00  0.00    +0.033 A 
ATOM     15  C   UNL     1      -3.095  -1.060  -0.393  0.00  0.00    -0.005 A 
ATOM     16  C   UNL     1      -3.751   1.715  -0.342  0.00  0.00    +0.252 A 
ATOM     17  C   UNL     1      -4.214  -0.527  -1.154  0.00  0.00    +0.015 A 
ATOM     19  C   UNL     1      -4.537   0.766  -1.157  0.00  0.00    +0.071 A 
ENDROOT
BRANCH   6   2
ATOM      2  S   UNL     1       1.619   0.995  -1.313  0.00  0.00    +0.061 S 
ATOM      3  O   UNL     1       1.898   2.408  -1.469  0.00  0.00    -0.153 OA
ATOM      4  O   UNL     1       1.291   0.150  -2.442  0.00  0.00    -0.153 OA
BRANCH   2  18
ATOM      1 CL   UNL     1       6.937  -1.449   0.900  0.00  0.00    -0.084 Cl
ATOM     18  C   UNL     1       3.141   0.296  -0.682  0.00  0.00    +0.106 A 
ATOM     21  C   UNL     1       3.397  -1.033  -0.915  0.00  0.00    +0.030 A 
ATOM     22  C   UNL     1       3.997   1.115   0.015  0.00  0.00    +0.030 A 
ATOM     24  C   UNL     1       4.582  -1.578  -0.422  0.00  0.00    +0.022 A 
ATOM     25  C   UNL     1       5.182   0.570   0.508  0.00  0.00    +0.022 A 
ATOM     26  C   UNL     1       5.475  -0.776   0.290  0.00  0.00    +0.041 A 
ENDBRANCH   2  18
ENDBRANCH   6   2
BRANCH  15  20
ATOM     20  C   UNL     1      -2.798  -2.481  -0.485  0.00  0.00    +0.005 C 
ATOM     23  C   UNL     1      -3.331  -3.383   0.334  0.00  0.00    -0.030 C 
ATOM     27  C   UNL     1      -3.026  -4.842   0.245  0.00  0.00    +0.035 C 
ENDBRANCH  15  20
TORSDOF 3
