REMARK  Name = 11912475
REMARK  6 active torsions:
REMARK  status: ('A' for Active; 'I' for Inactive)
REMARK    1  A    between atoms: O_7  and  C_16
REMARK    2  A    between atoms: O_7  and  C_20
REMARK    3  A    between atoms: N_9  and  C_15
REMARK    4  A    between atoms: N_12  and  C_23
REMARK    5  A    between atoms: C_21  and  C_25
REMARK    6  A    between atoms: C_28  and  C_32
REMARK                            x       y       z     vdW  Elec       q    Type
REMARK                         _______ _______ _______ _____ _____    ______ ____
ROOT
ATOM      5  O   UNL     1      -0.046   0.006  -1.436  0.00  0.00    -0.368 OA
ATOM      6  O   UNL     1      -1.897  -2.148  -0.275  0.00  0.00    -0.368 OA
ATOM     13  C   UNL     1      -1.881  -0.714  -0.117  0.00  0.00    +0.173 C 
ATOM     14  C   UNL     1      -0.426  -0.292  -0.082  0.00  0.00    +0.192 C 
ATOM     15  C   UNL     1      -2.424  -0.050  -1.362  0.00  0.00    +0.130 C 
ATOM     16  C   UNL     1       0.262  -1.535   0.430  0.00  0.00    +0.235 C 
ATOM     17  C   UNL     1      -1.210  -0.033  -2.275  0.00  0.00    +0.185 C 
ATOM     18  C   UNL     1      -0.549  -2.637  -0.212  0.00  0.00    +0.207 C 
ENDROOT
BRANCH  15   9
ATOM      9  N   UNL     1      -2.849   1.301  -1.066  0.00  0.00    -0.306 N 
ATOM     10  N   UNL     1      -4.970   0.596  -0.351  0.00  0.00    -0.214 NA
ATOM     11  N   UNL     1      -4.369   2.930  -0.332  0.00  0.00    -0.223 NA
ATOM     19  C   UNL     1      -4.100   1.619  -0.568  0.00  0.00    +0.216 A 
ATOM     21  C   UNL     1      -6.180   0.942   0.135  0.00  0.00    +0.083 A 
ATOM     22  C   UNL     1      -5.598   3.204   0.154  0.00  0.00    +0.116 A 
ATOM     24  C   UNL     1      -6.553   2.242   0.409  0.00  0.00    +0.049 A 
ATOM     35  H   UNL     1      -2.191   2.065  -1.174  0.00  0.00    +0.149 HD
BRANCH  21  25
ATOM      1  S   UNL     1      -6.430  -1.696   0.756  0.00  0.00    -0.095 S 
ATOM     25  C   UNL     1      -7.079  -0.160   0.354  0.00  0.00    +0.038 A 
ATOM     29  C   UNL     1      -8.457  -0.188   0.289  0.00  0.00    +0.017 A 
ATOM     33  C   UNL     1      -8.984  -1.481   0.573  0.00  0.00    +0.008 A 
ATOM     34  C   UNL     1      -7.990  -2.396   0.845  0.00  0.00    +0.046 A 
ENDBRANCH  21  25
ENDBRANCH  15   9
BRANCH  16   7
ATOM      7  O   UNL     1       1.626  -1.607   0.081  0.00  0.00    -0.442 OA
BRANCH   7  20
ATOM      8  O   UNL     1       2.043   0.282   1.299  0.00  0.00    -0.226 OA
ATOM     12  N   UNL     1       3.746  -0.840   0.150  0.00  0.00    -0.251 N 
ATOM     20  C   UNL     1       2.452  -0.623   0.583  0.00  0.00    +0.405 C 
ATOM     36  H   UNL     1       3.889  -1.653  -0.445  0.00  0.00    +0.158 HD
BRANCH  12  23
ATOM     23  C   UNL     1       4.898  -0.071   0.430  0.00  0.00    +0.037 A 
ATOM     26  C   UNL     1       6.118  -0.455  -0.103  0.00  0.00    +0.035 A 
ATOM     27  C   UNL     1       4.785   1.053   1.233  0.00  0.00    +0.023 A 
ATOM     28  C   UNL     1       7.255   0.305   0.173  0.00  0.00    +0.057 A 
ATOM     30  C   UNL     1       5.922   1.813   1.509  0.00  0.00    +0.002 A 
ATOM     31  C   UNL     1       7.157   1.439   0.979  0.00  0.00    +0.012 A 
BRANCH  28  32
ATOM      2  F   UNL     1       9.597   0.741  -0.042  0.00  0.00    -0.166 F 
ATOM      3  F   UNL     1       8.983  -1.339  -0.008  0.00  0.00    -0.166 F 
ATOM      4  F   UNL     1       8.575  -0.116  -1.759  0.00  0.00    -0.166 F 
ATOM     32  C   UNL     1       8.575  -0.094  -0.395  0.00  0.00    +0.417 C 
ENDBRANCH  28  32
ENDBRANCH  12  23
ENDBRANCH   7  20
ENDBRANCH  16   7
TORSDOF 6
