REMARK  Name = 11885192
REMARK  1 active torsions:
REMARK  status: ('A' for Active; 'I' for Inactive)
REMARK    1  A    between atoms: C_14  and  C_16
REMARK                            x       y       z     vdW  Elec       q    Type
REMARK                         _______ _______ _______ _____ _____    ______ ____
ROOT
ATOM      2  O   UNL     1      -0.925  -1.936  -0.171  0.00  0.00    -0.267 OA
ATOM      3  N   UNL     1       0.869  -0.454  -0.326  0.00  0.00    -0.311 N 
ATOM      4  N   UNL     1       3.298   0.058   1.695  0.00  0.00    -0.315 NA
ATOM      5  C   UNL     1       3.306  -1.239  -0.451  0.00  0.00    +0.023 C 
ATOM      6  C   UNL     1       2.797   1.156  -0.493  0.00  0.00    +0.050 C 
ATOM      7  C   UNL     1       3.522   0.043  -1.246  0.00  0.00    +0.017 C 
ATOM      8  C   UNL     1       1.809  -1.577  -0.456  0.00  0.00    +0.130 C 
ATOM      9  C   UNL     1       3.871  -1.078   0.974  0.00  0.00    +0.086 C 
ATOM     10  C   UNL     1       3.398   1.298   0.921  0.00  0.00    +0.090 C 
ATOM     11  C   UNL     1       1.309   0.869  -0.411  0.00  0.00    +0.026 A 
ATOM     12  C   UNL     1       0.421   1.876  -0.403  0.00  0.00    +0.022 A 
ATOM     13  C   UNL     1      -0.497  -0.781  -0.215  0.00  0.00    +0.260 A 
ATOM     14  C   UNL     1      -1.466   0.370  -0.174  0.00  0.00    +0.053 A 
ATOM     15  C   UNL     1      -0.985   1.619  -0.276  0.00  0.00    +0.016 A 
ATOM     20  H   UNL     1       3.773   0.172   2.589  0.00  0.00    +0.122 HD
ENDROOT
BRANCH  14  16
ATOM      1  S   UNL     1      -3.595   0.078   1.557  0.00  0.00    -0.096 S 
ATOM     16  C   UNL     1      -2.913   0.145  -0.016  0.00  0.00    +0.024 A 
ATOM     17  C   UNL     1      -3.874  -0.033  -0.994  0.00  0.00    +0.016 A 
ATOM     18  C   UNL     1      -5.175  -0.225  -0.446  0.00  0.00    +0.008 A 
ATOM     19  C   UNL     1      -5.167  -0.188   0.931  0.00  0.00    +0.046 A 
ENDBRANCH  14  16
TORSDOF 1
