REMARK  Name = 75536553
REMARK  8 active torsions:
REMARK  status: ('A' for Active; 'I' for Inactive)
REMARK    1  A    between atoms: O_2  and  C_7
REMARK    2  A    between atoms: N_4  and  C_6
REMARK    3  A    between atoms: N_4  and  C_17
REMARK    4  A    between atoms: N_5  and  C_15
REMARK    5  A    between atoms: C_8  and  C_15
REMARK    6  A    between atoms: C_9  and  C_16
REMARK    7  A    between atoms: C_17  and  C_18
REMARK    8  A    between atoms: C_17  and  C_19
REMARK                            x       y       z     vdW  Elec       q    Type
REMARK                         _______ _______ _______ _____ _____    ______ ____
ROOT
ATOM      1  O   UNL     1      -0.963  -1.282  -0.179  0.00  0.00    -0.371 OA
ATOM      6  C   UNL     1      -2.955   0.009  -0.097  0.00  0.00    +0.111 C 
ATOM      7  C   UNL     1      -1.932   0.618   0.844  0.00  0.00    +0.164 C 
ATOM      8  C   UNL     1      -0.639   0.040   0.285  0.00  0.00    +0.165 C 
ATOM     12  C   UNL     1      -2.393  -1.390  -0.288  0.00  0.00    +0.181 C 
ENDROOT
BRANCH   7   2
ATOM      2  O   UNL     1      -1.934   2.032   0.812  0.00  0.00    -0.388 OA
ATOM     22  H   UNL     1      -1.788   2.317  -0.105  0.00  0.00    +0.210 HD
ENDBRANCH   7   2
BRANCH   6   4
ATOM      4  N   UNL     1      -4.308   0.008   0.434  0.00  0.00    -0.307 NA
ATOM     20  H   UNL     1      -4.514   0.904   0.874  0.00  0.00    +0.123 HD
BRANCH   4  17
ATOM     17  C   UNL     1      -5.284  -0.266  -0.615  0.00  0.00    +0.048 C 
ATOM     18  C   UNL     1      -6.573  -0.784   0.014  0.00  0.00    +0.023 C 
ATOM     19  C   UNL     1      -5.542   0.993  -1.438  0.00  0.00    +0.023 C 
ENDBRANCH   4  17
ENDBRANCH   6   4
BRANCH   8  15
ATOM     15  C   UNL     1       0.477  -0.036   1.312  0.00  0.00    +0.138 C 
BRANCH  15   5
ATOM      3  O   UNL     1       2.642   1.399   0.013  0.00  0.00    -0.276 OA
ATOM      5  N   UNL     1       1.672  -0.590   0.743  0.00  0.00    -0.313 N 
ATOM     16  C   UNL     1       2.661   0.177   0.137  0.00  0.00    +0.216 C 
ATOM     21  H   UNL     1       1.791  -1.598   0.794  0.00  0.00    +0.149 HD
BRANCH  16   9
ATOM      9  C   UNL     1       3.813  -0.649  -0.350  0.00  0.00    +0.075 C 
ATOM     10  C   UNL     1       4.494   0.026  -1.542  0.00  0.00    +0.013 C 
ATOM     11  C   UNL     1       4.881  -0.769   0.743  0.00  0.00    +0.013 C 
ATOM     13  C   UNL     1       5.710   0.721  -0.946  0.00  0.00    +0.001 C 
ATOM     14  C   UNL     1       6.174  -0.255   0.120  0.00  0.00    +0.001 C 
ENDBRANCH  16   9
ENDBRANCH  15   5
ENDBRANCH   8  15
TORSDOF 6
