REMARK  Name = 51137517
REMARK  8 active torsions:
REMARK  status: ('A' for Active; 'I' for Inactive)
REMARK    1  A    between atoms: S_1  and  C_21
REMARK    2  A    between atoms: S_1  and  C_25
REMARK    3  A    between atoms: O_5  and  C_28
REMARK    4  A    between atoms: O_5  and  C_29
REMARK    5  A    between atoms: N_6  and  C_13
REMARK    6  A    between atoms: C_9  and  C_14
REMARK    7  A    between atoms: C_13  and  C_15
REMARK    8  A    between atoms: C_18  and  C_22
REMARK                            x       y       z     vdW  Elec       q    Type
REMARK                         _______ _______ _______ _____ _____    ______ ____
ROOT
ATOM      6  N   UNL     1      -1.448  -0.917  -0.344  0.00  0.00    -0.297 NA
ATOM      9  C   UNL     1       0.453  -2.159   0.241  0.00  0.00    +0.092 C 
ATOM     10  C   UNL     1      -0.128  -1.485   1.496  0.00  0.00    +0.029 C 
ATOM     11  C   UNL     1      -0.209  -1.427  -0.934  0.00  0.00    +0.097 C 
ATOM     12  C   UNL     1      -1.057  -0.400   0.967  0.00  0.00    +0.085 C 
ENDROOT
BRANCH   9  14
ATOM      2  O   UNL     1       2.577  -0.943   0.156  0.00  0.00    -0.420 OA
ATOM      7  N   UNL     1       2.797  -3.168   0.093  0.00  0.00    -0.112 NA
ATOM      8  N   UNL     1       4.061  -2.613   0.038  0.00  0.00    -0.107 NA
ATOM     14  C   UNL     1       1.962  -2.157   0.161  0.00  0.00    +0.222 A 
ATOM     18  C   UNL     1       3.885  -1.313   0.078  0.00  0.00    +0.248 A 
BRANCH  18  22
ATOM     22  C   UNL     1       4.839  -0.242   0.052  0.00  0.00    +0.039 A 
ATOM     23  C   UNL     1       6.203  -0.525  -0.027  0.00  0.00    +0.017 A 
ATOM     24  C   UNL     1       4.403   1.082   0.104  0.00  0.00    +0.017 A 
ATOM     26  C   UNL     1       7.131   0.516  -0.053  0.00  0.00    +0.046 A 
ATOM     27  C   UNL     1       5.331   2.123   0.079  0.00  0.00    +0.046 A 
ATOM     28  C   UNL     1       6.695   1.840   0.000  0.00  0.00    +0.120 A 
BRANCH  28   5
ATOM      5  O   UNL     1       7.600   2.856  -0.028  0.00  0.00    -0.495 OA
ATOM     29  C   UNL     1       8.978   2.495  -0.112  0.00  0.00    +0.277 C 
ENDBRANCH  28   5
ENDBRANCH  18  22
ENDBRANCH   9  14
BRANCH   6  13
ATOM     13  C   UNL     1      -2.082   0.097  -1.173  0.00  0.00    +0.119 C 
BRANCH  13  15
ATOM     15  C   UNL     1      -3.529   0.296  -0.808  0.00  0.00    -0.033 A 
ATOM     16  C   UNL     1      -4.485  -0.637  -1.209  0.00  0.00    +0.007 A 
ATOM     17  C   UNL     1      -3.914   1.414  -0.067  0.00  0.00    +0.007 A 
ATOM     19  C   UNL     1      -5.825  -0.452  -0.871  0.00  0.00    +0.027 A 
ATOM     20  C   UNL     1      -5.254   1.599   0.272  0.00  0.00    +0.027 A 
ATOM     21  C   UNL     1      -6.210   0.665  -0.130  0.00  0.00    +0.088 A 
BRANCH  21   1
ATOM      1  S   UNL     1      -7.888   0.894   0.297  0.00  0.00    -0.006 S 
ATOM      3  O   UNL     1      -8.125   2.312   0.533  0.00  0.00    -0.170 OA
ATOM      4  O   UNL     1      -8.699   0.178  -0.677  0.00  0.00    -0.170 OA
ATOM     25  C   UNL     1      -8.061   0.072   1.864  0.00  0.00    +0.200 C 
ENDBRANCH  21   1
ENDBRANCH  13  15
ENDBRANCH   6  13
TORSDOF 6
