REMARK  Name = 56774933
REMARK  11 active torsions:
REMARK  status: ('A' for Active; 'I' for Inactive)
REMARK    1  A    between atoms: O_2  and  C_10
REMARK    2  A    between atoms: O_3  and  C_16
REMARK    3  A    between atoms: O_3  and  C_22
REMARK    4  A    between atoms: N_6  and  C_12
REMARK    5  A    between atoms: N_7  and  C_21
REMARK    6  A    between atoms: N_8  and  C_25
REMARK    7  A    between atoms: C_9  and  C_10
REMARK    8  A    between atoms: C_10  and  C_14
REMARK    9  A    between atoms: C_12  and  C_16
REMARK   10  A    between atoms: C_22  and  C_23
REMARK   11  A    between atoms: C_25  and  C_26
REMARK                            x       y       z     vdW  Elec       q    Type
REMARK                         _______ _______ _______ _____ _____    ______ ____
ROOT
ATOM     10  C   UNL     1      -1.127  -0.867   1.003  0.00  0.00    +0.167 C 
ENDROOT
BRANCH  10   9
ATOM      1  O   UNL     1      -1.750  -2.041  -1.613  0.00  0.00    -0.369 OA
ATOM      4  O   UNL     1      -5.029  -2.393  -0.141  0.00  0.00    -0.273 OA
ATOM      6  N   UNL     1      -3.448  -0.716   0.182  0.00  0.00    -0.289 N 
ATOM      9  C   UNL     1      -2.069  -0.266  -0.044  0.00  0.00    +0.135 C 
ATOM     11  C   UNL     1      -1.626  -0.632  -1.455  0.00  0.00    +0.185 C 
ATOM     13  C   UNL     1      -3.949  -1.869  -0.419  0.00  0.00    +0.242 C 
ATOM     15  C   UNL     1      -3.102  -2.439  -1.551  0.00  0.00    +0.255 C 
BRANCH   6  12
ATOM     12  C   UNL     1      -4.225  -0.020   1.200  0.00  0.00    +0.136 C 
BRANCH  12  16
ATOM     16  C   UNL     1      -5.165   0.999   0.584  0.00  0.00    +0.178 C 
BRANCH  16   3
ATOM      3  O   UNL     1      -4.408   1.981  -0.112  0.00  0.00    -0.378 OA
BRANCH   3  22
ATOM     22  C   UNL     1      -5.247   2.961  -0.708  0.00  0.00    +0.156 C 
ATOM     23  C   UNL     1      -4.385   3.974  -1.431  0.00  0.00    +0.034 C 
ENDBRANCH   3  22
ENDBRANCH  16   3
ENDBRANCH  12  16
ENDBRANCH   6  12
ENDBRANCH  10   9
BRANCH  10  14
ATOM     14  C   UNL     1       0.292  -0.393   0.819  0.00  0.00    -0.017 A 
ATOM     17  C   UNL     1       0.584   0.970   0.868  0.00  0.00    +0.008 A 
ATOM     18  C   UNL     1       1.313  -1.317   0.598  0.00  0.00    +0.008 A 
ATOM     19  C   UNL     1       1.897   1.409   0.698  0.00  0.00    +0.024 A 
ATOM     20  C   UNL     1       2.626  -0.879   0.428  0.00  0.00    +0.024 A 
ATOM     21  C   UNL     1       2.918   0.484   0.478  0.00  0.00    +0.035 A 
BRANCH  21   7
ATOM      5  O   UNL     1       5.437  -1.070  -0.017  0.00  0.00    -0.253 OA
ATOM      7  N   UNL     1       4.232   0.923   0.308  0.00  0.00    -0.269 N 
ATOM      8  N   UNL     1       6.518   0.973  -0.038  0.00  0.00    -0.299 N 
ATOM     24  C   UNL     1       5.390   0.154   0.077  0.00  0.00    +0.304 C 
ATOM     28  H   UNL     1       4.369   1.930   0.357  0.00  0.00    +0.156 HD
ATOM     29  H   UNL     1       6.400   1.979   0.040  0.00  0.00    +0.150 HD
BRANCH   8  25
ATOM     25  C   UNL     1       7.846   0.458  -0.278  0.00  0.00    +0.102 C 
ATOM     26  C   UNL     1       8.057   0.128  -1.741  0.00  0.00    +0.024 C 
ENDBRANCH   8  25
ENDBRANCH  21   7
ENDBRANCH  10  14
BRANCH  10   2
ATOM      2  O   UNL     1      -1.581  -0.511   2.305  0.00  0.00    -0.385 OA
ATOM     27  H   UNL     1      -1.389   0.427   2.467  0.00  0.00    +0.210 HD
ENDBRANCH  10   2
TORSDOF 9
