REMARK  Name = 75367694
REMARK  5 active torsions:
REMARK  status: ('A' for Active; 'I' for Inactive)
REMARK    1  A    between atoms: S_1  and  C_19
REMARK    2  A    between atoms: S_1  and  C_23
REMARK    3  A    between atoms: O_3  and  C_10
REMARK    4  A    between atoms: O_3  and  C_16
REMARK    5  A    between atoms: N_8  and  C_22
REMARK                            x       y       z     vdW  Elec       q    Type
REMARK                         _______ _______ _______ _____ _____    ______ ____
ROOT
ATOM      2  O   UNL     1       1.260   4.112   0.578  0.00  0.00    -0.375 OA
ATOM      4  O   UNL     1       4.385   0.863   0.032  0.00  0.00    -0.252 OA
ATOM      7  N   UNL     1       2.495   1.874  -0.840  0.00  0.00    -0.280 N 
ATOM      8  N   UNL     1       2.555  -0.462  -0.513  0.00  0.00    -0.268 N 
ATOM     10  C   UNL     1       0.102   2.054  -0.123  0.00  0.00    +0.216 C 
ATOM     11  C   UNL     1       1.091   1.859  -1.274  0.00  0.00    +0.156 C 
ATOM     12  C   UNL     1       0.582   2.942   1.026  0.00  0.00    +0.206 C 
ATOM     13  C   UNL     1       3.102   3.205  -0.757  0.00  0.00    +0.137 C 
ATOM     14  C   UNL     1       2.677   3.942   0.507  0.00  0.00    +0.179 C 
ATOM     15  C   UNL     1       3.239   0.750  -0.410  0.00  0.00    +0.307 C 
ATOM     28  H   UNL     1       1.598  -0.457  -0.846  0.00  0.00    +0.156 HD
ENDROOT
BRANCH   8  22
ATOM      9  N   UNL     1       4.808  -3.140   0.693  0.00  0.00    -0.261 NA
ATOM     22  C   UNL     1       3.024  -1.753  -0.167  0.00  0.00    +0.053 A 
ATOM     24  C   UNL     1       2.219  -2.875  -0.327  0.00  0.00    +0.026 A 
ATOM     25  C   UNL     1       4.299  -1.937   0.343  0.00  0.00    +0.134 A 
ATOM     26  C   UNL     1       2.707  -4.130   0.022  0.00  0.00    +0.021 A 
ATOM     27  C   UNL     1       3.997  -4.208   0.523  0.00  0.00    +0.111 A 
ENDBRANCH   8  22
BRANCH  10   3
ATOM      3  O   UNL     1      -0.257   0.777   0.404  0.00  0.00    -0.485 OA
BRANCH   3  16
ATOM     16  C   UNL     1      -1.566   0.404   0.264  0.00  0.00    +0.121 A 
ATOM     17  C   UNL     1      -2.576   1.178   0.834  0.00  0.00    +0.047 A 
ATOM     18  C   UNL     1      -1.889  -0.751  -0.448  0.00  0.00    +0.047 A 
ATOM     19  C   UNL     1      -4.234  -0.358  -0.020  0.00  0.00    +0.088 A 
ATOM     20  C   UNL     1      -3.911   0.797   0.692  0.00  0.00    +0.030 A 
ATOM     21  C   UNL     1      -3.224  -1.132  -0.590  0.00  0.00    +0.030 A 
BRANCH  19   1
ATOM      1  S   UNL     1      -5.905  -0.832  -0.201  0.00  0.00    -0.006 S 
ATOM      5  O   UNL     1      -6.748   0.346  -0.053  0.00  0.00    -0.170 OA
ATOM      6  O   UNL     1      -6.011  -1.651  -1.400  0.00  0.00    -0.170 OA
ATOM     23  C   UNL     1      -6.223  -1.876   1.204  0.00  0.00    +0.200 C 
ENDBRANCH  19   1
ENDBRANCH   3  16
ENDBRANCH  10   3
TORSDOF 4
