REMARK  Name = 26742294
REMARK  4 active torsions:
REMARK  status: ('A' for Active; 'I' for Inactive)
REMARK    1  A    between atoms: O_3  and  C_25
REMARK    2  A    between atoms: O_3  and  C_31
REMARK    3  A    between atoms: N_6  and  C_23
REMARK    4  A    between atoms: C_15  and  C_20
REMARK                            x       y       z     vdW  Elec       q    Type
REMARK                         _______ _______ _______ _____ _____    ______ ____
ROOT
ATOM      1  O   UNL     1      -1.760  -2.769   2.978  0.00  0.00    -0.268 OA
ATOM      2  O   UNL     1       1.748  -2.914  -0.444  0.00  0.00    -0.252 OA
ATOM      4  N   UNL     1      -1.955  -1.703   0.902  0.00  0.00    -0.311 N 
ATOM      5  N   UNL     1       0.028  -1.819  -1.538  0.00  0.00    -0.284 N 
ATOM      6  N   UNL     1       1.690  -0.598  -0.393  0.00  0.00    -0.266 N 
ATOM      8  C   UNL     1      -2.121  -3.041  -1.277  0.00  0.00    +0.027 C 
ATOM      9  C   UNL     1      -2.109  -0.581  -1.347  0.00  0.00    +0.054 C 
ATOM     10  C   UNL     1      -2.876  -1.825  -1.796  0.00  0.00    +0.018 C 
ATOM     11  C   UNL     1      -2.153  -3.006   0.251  0.00  0.00    +0.130 C 
ATOM     12  C   UNL     1      -0.683  -3.066  -1.827  0.00  0.00    +0.114 C 
ATOM     13  C   UNL     1      -0.693  -0.609  -1.965  0.00  0.00    +0.119 C 
ATOM     14  C   UNL     1      -2.016  -0.493   0.181  0.00  0.00    +0.034 A 
ATOM     15  C   UNL     1      -1.952   0.692   0.844  0.00  0.00    +0.004 A 
ATOM     16  C   UNL     1      -1.805  -1.743   2.299  0.00  0.00    +0.252 A 
ATOM     17  C   UNL     1       1.206  -1.852  -0.760  0.00  0.00    +0.307 C 
ATOM     18  C   UNL     1      -1.794   0.689   2.286  0.00  0.00    +0.015 A 
ATOM     19  C   UNL     1      -1.710  -0.439   2.992  0.00  0.00    +0.071 A 
ATOM     32  H   UNL     1       1.022   0.151  -0.254  0.00  0.00    +0.156 HD
ENDROOT
BRANCH  15  20
ATOM      7  N   UNL     1      -3.336   3.818  -0.722  0.00  0.00    -0.263 NA
ATOM     20  C   UNL     1      -2.007   1.988   0.134  0.00  0.00    +0.002 A 
ATOM     21  C   UNL     1      -0.850   2.596  -0.340  0.00  0.00    +0.011 A 
ATOM     22  C   UNL     1      -3.214   2.634  -0.081  0.00  0.00    +0.119 A 
ATOM     24  C   UNL     1      -0.934   3.815  -1.004  0.00  0.00    +0.020 A 
ATOM     27  C   UNL     1      -2.189   4.379  -1.168  0.00  0.00    +0.111 A 
ENDBRANCH  15  20
BRANCH   6  23
ATOM     23  C   UNL     1       3.040  -0.238  -0.165  0.00  0.00    +0.077 A 
ATOM     25  C   UNL     1       3.369   1.043   0.279  0.00  0.00    +0.141 A 
ATOM     26  C   UNL     1       4.046  -1.179  -0.387  0.00  0.00    +0.027 A 
ATOM     28  C   UNL     1       4.704   1.383   0.499  0.00  0.00    +0.047 A 
ATOM     29  C   UNL     1       5.380  -0.839  -0.166  0.00  0.00    +0.002 A 
ATOM     30  C   UNL     1       5.710   0.442   0.277  0.00  0.00    +0.004 A 
BRANCH  25   3
ATOM      3  O   UNL     1       2.402   1.977   0.502  0.00  0.00    -0.493 OA
ATOM     31  C   UNL     1       2.834   3.259   0.955  0.00  0.00    +0.277 C 
ENDBRANCH  25   3
ENDBRANCH   6  23
TORSDOF 3
