REMARK  Name = 23843914
REMARK  11 active torsions:
REMARK  status: ('A' for Active; 'I' for Inactive)
REMARK    1  A    between atoms: O_4  and  C_17
REMARK    2  A    between atoms: O_4  and  C_26
REMARK    3  A    between atoms: O_5  and  C_18
REMARK    4  A    between atoms: O_6  and  C_22
REMARK    5  A    between atoms: N_10  and  C_31
REMARK    6  A    between atoms: C_11  and  C_21
REMARK    7  A    between atoms: C_13  and  C_22
REMARK    8  A    between atoms: C_13  and  C_24
REMARK    9  A    between atoms: C_14  and  C_23
REMARK   10  A    between atoms: C_23  and  C_25
REMARK   11  A    between atoms: C_34  and  C_37
REMARK                            x       y       z     vdW  Elec       q    Type
REMARK                         _______ _______ _______ _____ _____    ______ ____
ROOT
ATOM     11  C   UNL     1       2.497   0.478   0.969  0.00  0.00    -0.023 C 
ATOM     12  C   UNL     1       1.789  -0.039  -0.348  0.00  0.00    +0.007 C 
ATOM     13  C   UNL     1       0.243   0.324  -0.452  0.00  0.00    +0.031 C 
ATOM     14  C   UNL     1       3.974  -0.084   1.085  0.00  0.00    +0.032 C 
ATOM     15  C   UNL     1       1.665   0.019   2.201  0.00  0.00    +0.011 C 
ATOM     16  C   UNL     1       1.998  -1.574  -0.533  0.00  0.00    +0.007 C 
ATOM     17  C   UNL     1      -0.493  -0.093   0.854  0.00  0.00    +0.186 C 
ATOM     18  C   UNL     1       4.030  -1.615   0.935  0.00  0.00    +0.119 C 
ATOM     19  C   UNL     1       0.188   0.401   2.130  0.00  0.00    +0.046 C 
ATOM     20  C   UNL     1       3.433  -2.053  -0.388  0.00  0.00    +0.032 C 
ATOM     21  C   UNL     1       2.608   2.025   1.020  0.00  0.00    +0.012 C 
ATOM     24  C   UNL     1      -0.416  -0.415  -1.652  0.00  0.00    +0.017 C 
ENDROOT
BRANCH  18   5
ATOM      5  O   UNL     1       5.371  -2.095   1.008  0.00  0.00    -0.391 OA
ATOM     38  H   UNL     1       5.343  -3.063   0.927  0.00  0.00    +0.210 HD
ENDBRANCH  18   5
BRANCH  17   4
ATOM      4  O   UNL     1      -1.837   0.390   0.874  0.00  0.00    -0.446 OA
BRANCH   4  26
ATOM      8  O   UNL     1      -2.528  -1.533  -0.154  0.00  0.00    -0.226 OA
ATOM     10  N   UNL     1      -4.021   0.174   0.428  0.00  0.00    -0.251 N 
ATOM     26  C   UNL     1      -2.786  -0.437   0.330  0.00  0.00    +0.405 C 
ATOM     40  H   UNL     1      -4.034   1.092   0.865  0.00  0.00    +0.158 HD
BRANCH  10  31
ATOM     31  C   UNL     1      -5.273  -0.319  -0.004  0.00  0.00    +0.037 A 
ATOM     32  C   UNL     1      -6.425   0.445   0.181  0.00  0.00    +0.035 A 
ATOM     33  C   UNL     1      -5.356  -1.570  -0.615  0.00  0.00    +0.023 A 
ATOM     34  C   UNL     1      -7.661  -0.043  -0.245  0.00  0.00    +0.057 A 
ATOM     35  C   UNL     1      -6.592  -2.058  -1.042  0.00  0.00    +0.002 A 
ATOM     36  C   UNL     1      -7.744  -1.294  -0.856  0.00  0.00    +0.012 A 
BRANCH  34  37
ATOM      1  F   UNL     1     -10.028   0.173  -0.514  0.00  0.00    -0.166 F 
ATOM      2  F   UNL     1      -9.155   1.063   1.261  0.00  0.00    -0.166 F 
ATOM      3  F   UNL     1      -8.831   1.981  -0.684  0.00  0.00    -0.166 F 
ATOM     37  C   UNL     1      -8.893   0.774  -0.048  0.00  0.00    +0.417 C 
ENDBRANCH  34  37
ENDBRANCH  10  31
ENDBRANCH   4  26
ENDBRANCH  17   4
BRANCH  13  22
ATOM     22  C   UNL     1       0.023   1.826  -0.760  0.00  0.00    +0.166 C 
BRANCH  22   6
ATOM      6  O   UNL     1       1.004   2.219  -1.691  0.00  0.00    -0.394 OA
ATOM     39  H   UNL     1       0.863   3.162  -1.880  0.00  0.00    +0.209 HD
ENDBRANCH  22   6
ENDBRANCH  13  22
BRANCH  14  23
ATOM     23  C   UNL     1       4.963   0.594   0.107  0.00  0.00    +0.102 C 
BRANCH  23  25
ATOM      7  O   UNL     1       6.588   0.341   1.830  0.00  0.00    -0.276 OA
ATOM      9  N   UNL     1       7.356   0.373  -0.348  0.00  0.00    -0.301 N 
ATOM     25  C   UNL     1       6.370   0.422   0.620  0.00  0.00    +0.216 C 
ATOM     27  C   UNL     1       8.765   0.218  -0.016  0.00  0.00    +0.108 C 
ATOM     28  C   UNL     1       7.166   0.460  -1.793  0.00  0.00    +0.108 C 
ATOM     29  C   UNL     1       9.435  -0.111  -1.341  0.00  0.00    +0.020 C 
ATOM     30  C   UNL     1       8.572   0.634  -2.351  0.00  0.00    +0.020 C 
ENDBRANCH  23  25
ENDBRANCH  14  23
TORSDOF 9
