REMARK  Name = 56775024
REMARK  6 active torsions:
REMARK  status: ('A' for Active; 'I' for Inactive)
REMARK    1  A    between atoms: N_3  and  C_10
REMARK    2  A    between atoms: N_4  and  C_14
REMARK    3  A    between atoms: C_10  and  C_11
REMARK    4  A    between atoms: C_11  and  C_15
REMARK    5  A    between atoms: C_11  and  C_16
REMARK    6  A    between atoms: C_14  and  C_17
REMARK                            x       y       z     vdW  Elec       q    Type
REMARK                         _______ _______ _______ _____ _____    ______ ____
ROOT
ATOM      1  O   UNL     1       0.959   2.725  -0.614  0.00  0.00    -0.364 OA
ATOM      2  O   UNL     1      -1.905   2.542   1.431  0.00  0.00    -0.273 OA
ATOM      3  N   UNL     1       2.660  -0.096  -0.680  0.00  0.00    -0.298 NA
ATOM      4  N   UNL     1      -0.682   0.804   0.482  0.00  0.00    -0.288 N 
ATOM      6  C   UNL     1       0.419   0.385  -0.380  0.00  0.00    +0.120 C 
ATOM      7  C   UNL     1       0.972   1.474  -1.295  0.00  0.00    +0.154 C 
ATOM      8  C   UNL     1       1.664  -0.047   0.390  0.00  0.00    +0.109 C 
ATOM      9  C   UNL     1       2.435   1.083  -1.528  0.00  0.00    +0.118 C 
ATOM     12  C   UNL     1      -1.045   2.137   0.647  0.00  0.00    +0.242 C 
ATOM     13  C   UNL     1      -0.356   3.109  -0.287  0.00  0.00    +0.256 C 
ENDROOT
BRANCH   3  10
ATOM     10  C   UNL     1       4.022  -0.179  -0.178  0.00  0.00    +0.087 C 
BRANCH  10  11
ATOM     11  C   UNL     1       4.275  -1.469   0.623  0.00  0.00    -0.003 C 
ATOM     15  C   UNL     1       5.691  -1.533   1.202  0.00  0.00    +0.008 C 
ATOM     16  C   UNL     1       4.029  -2.688  -0.270  0.00  0.00    +0.008 C 
ENDBRANCH  10  11
ENDBRANCH   3  10
BRANCH   4  14
ATOM     14  C   UNL     1      -1.347  -0.235   1.259  0.00  0.00    +0.143 C 
BRANCH  14  17
ATOM      5  N   UNL     1      -4.739  -1.869  -0.809  0.00  0.00    -0.263 NA
ATOM     17  C   UNL     1      -2.532  -0.805   0.536  0.00  0.00    -0.027 A 
ATOM     18  C   UNL     1      -3.716  -0.081   0.457  0.00  0.00    +0.025 A 
ATOM     19  C   UNL     1      -2.450  -2.061  -0.056  0.00  0.00    +0.025 A 
ATOM     20  C   UNL     1      -4.781  -0.652  -0.221  0.00  0.00    +0.111 A 
ATOM     21  C   UNL     1      -3.572  -2.544  -0.711  0.00  0.00    +0.111 A 
ENDBRANCH  14  17
ENDBRANCH   4  14
TORSDOF 4
