REMARK  Name = 71693482
REMARK  11 active torsions:
REMARK  status: ('A' for Active; 'I' for Inactive)
REMARK    1  A    between atoms: O_2  and  C_12
REMARK    2  A    between atoms: O_6  and  C_26
REMARK    3  A    between atoms: O_6  and  C_27
REMARK    4  A    between atoms: N_7  and  C_15
REMARK    5  A    between atoms: N_8  and  C_23
REMARK    6  A    between atoms: N_8  and  C_24
REMARK    7  A    between atoms: N_9  and  C_22
REMARK    8  A    between atoms: C_10  and  C_12
REMARK    9  A    between atoms: C_11  and  C_13
REMARK   10  A    between atoms: C_15  and  C_19
REMARK   11  A    between atoms: C_25  and  C_26
REMARK                            x       y       z     vdW  Elec       q    Type
REMARK                         _______ _______ _______ _____ _____    ______ ____
ROOT
ATOM      1  O   UNL     1       0.993   2.390  -0.229  0.00  0.00    -0.361 OA
ATOM      3  O   UNL     1       4.555   2.470  -0.222  0.00  0.00    -0.273 OA
ATOM      7  N   UNL     1       3.130   0.710   0.332  0.00  0.00    -0.283 N 
ATOM     10  C   UNL     1       1.738   0.233   0.518  0.00  0.00    +0.135 C 
ATOM     11  C   UNL     1       0.761   0.992  -0.400  0.00  0.00    +0.171 C 
ATOM     14  C   UNL     1       3.425   1.981  -0.167  0.00  0.00    +0.242 C 
ATOM     16  C   UNL     1       2.253   2.755  -0.738  0.00  0.00    +0.256 C 
ENDROOT
BRANCH  11  13
ATOM     13  C   UNL     1      -0.701   0.744  -0.093  0.00  0.00    -0.017 A 
ATOM     17  C   UNL     1      -1.197   0.991   1.187  0.00  0.00    +0.008 A 
ATOM     18  C   UNL     1      -1.552   0.269  -1.091  0.00  0.00    +0.008 A 
ATOM     20  C   UNL     1      -2.544   0.763   1.469  0.00  0.00    +0.023 A 
ATOM     21  C   UNL     1      -2.899   0.041  -0.809  0.00  0.00    +0.023 A 
ATOM     22  C   UNL     1      -3.395   0.288   0.471  0.00  0.00    +0.033 A 
BRANCH  22   9
ATOM      5  O   UNL     1      -5.618  -0.709  -1.294  0.00  0.00    -0.273 OA
ATOM      9  N   UNL     1      -4.742   0.061   0.753  0.00  0.00    -0.284 N 
ATOM     25  C   UNL     1      -5.740  -0.410  -0.110  0.00  0.00    +0.243 C 
ATOM     29  H   UNL     1      -5.026   0.264   1.710  0.00  0.00    +0.155 HD
BRANCH  25  26
ATOM     26  C   UNL     1      -7.084  -0.523   0.576  0.00  0.00    +0.255 C 
BRANCH  26   6
ATOM      6  O   UNL     1      -8.033  -0.996  -0.357  0.00  0.00    -0.374 OA
ATOM     27  C   UNL     1      -9.327  -1.127   0.224  0.00  0.00    +0.194 C 
ENDBRANCH  26   6
ENDBRANCH  25  26
ENDBRANCH  22   9
ENDBRANCH  11  13
BRANCH  10  12
ATOM     12  C   UNL     1       1.605  -1.283   0.314  0.00  0.00    +0.181 C 
BRANCH  12   2
ATOM      2  O   UNL     1       1.891  -1.573  -1.040  0.00  0.00    -0.393 OA
ATOM     28  H   UNL     1       1.789  -2.532  -1.157  0.00  0.00    +0.209 HD
ENDBRANCH  12   2
ENDBRANCH  10  12
BRANCH   7  15
ATOM     15  C   UNL     1       4.212  -0.080   0.913  0.00  0.00    +0.204 C 
BRANCH  15  19
ATOM      4  O   UNL     1       4.498  -0.860  -1.335  0.00  0.00    -0.274 OA
ATOM      8  N   UNL     1       5.912  -1.757   0.270  0.00  0.00    -0.306 N 
ATOM     19  C   UNL     1       4.874  -0.924  -0.162  0.00  0.00    +0.232 C 
ATOM     23  C   UNL     1       6.646  -2.630  -0.642  0.00  0.00    +0.131 C 
ATOM     24  C   UNL     1       6.338  -1.815   1.663  0.00  0.00    +0.131 C 
ENDBRANCH  15  19
ENDBRANCH   7  15
TORSDOF 8
