REMARK  Name = 75536550
REMARK  7 active torsions:
REMARK  status: ('A' for Active; 'I' for Inactive)
REMARK    1  A    between atoms: O_3  and  C_11
REMARK    2  A    between atoms: N_5  and  C_13
REMARK    3  A    between atoms: N_6  and  C_12
REMARK    4  A    between atoms: N_6  and  C_16
REMARK    5  A    between atoms: C_7  and  C_15
REMARK    6  A    between atoms: C_10  and  C_13
REMARK    7  A    between atoms: C_16  and  C_17
REMARK                            x       y       z     vdW  Elec       q    Type
REMARK                         _______ _______ _______ _____ _____    ______ ____
ROOT
ATOM      2  O   UNL     1       2.148  -1.141   1.394  0.00  0.00    -0.371 OA
ATOM     10  C   UNL     1       2.322  -1.985   0.243  0.00  0.00    +0.165 C 
ATOM     11  C   UNL     1       1.106  -1.746  -0.642  0.00  0.00    +0.164 C 
ATOM     12  C   UNL     1       0.025  -1.526   0.400  0.00  0.00    +0.111 C 
ATOM     14  C   UNL     1       0.775  -0.716   1.445  0.00  0.00    +0.181 C 
ENDROOT
BRANCH  11   3
ATOM      3  O   UNL     1       0.839  -2.852  -1.481  0.00  0.00    -0.388 OA
ATOM     25  H   UNL     1       0.724  -3.639  -0.922  0.00  0.00    +0.210 HD
ENDBRANCH  11   3
BRANCH  12   6
ATOM      6  N   UNL     1      -1.149  -0.839  -0.113  0.00  0.00    -0.305 NA
ATOM     24  H   UNL     1      -1.415  -1.256  -1.006  0.00  0.00    +0.123 HD
BRANCH   6  16
ATOM     16  C   UNL     1      -2.270  -0.953   0.813  0.00  0.00    +0.119 C 
BRANCH  16  17
ATOM      1  F   UNL     1      -2.552   1.865   0.902  0.00  0.00    -0.205 F 
ATOM     17  C   UNL     1      -3.491  -0.233   0.305  0.00  0.00    +0.002 A 
ATOM     18  C   UNL     1      -3.565   1.158   0.380  0.00  0.00    +0.128 A 
ATOM     19  C   UNL     1      -4.549  -0.959  -0.240  0.00  0.00    +0.008 A 
ATOM     20  C   UNL     1      -4.697   1.823  -0.091  0.00  0.00    +0.038 A 
ATOM     21  C   UNL     1      -5.681  -0.294  -0.711  0.00  0.00    +0.000 A 
ATOM     22  C   UNL     1      -5.755   1.097  -0.637  0.00  0.00    +0.003 A 
ENDBRANCH  16  17
ENDBRANCH   6  16
ENDBRANCH  12   6
BRANCH  10  13
ATOM     13  C   UNL     1       3.637  -1.655  -0.441  0.00  0.00    +0.138 C 
BRANCH  13   5
ATOM      4  O   UNL     1       4.617   0.607   1.101  0.00  0.00    -0.276 OA
ATOM      5  N   UNL     1       3.685  -0.278  -0.842  0.00  0.00    -0.313 N 
ATOM     15  C   UNL     1       4.173   0.739  -0.034  0.00  0.00    +0.216 C 
ATOM     23  H   UNL     1       3.357  -0.046  -1.775  0.00  0.00    +0.149 HD
BRANCH  15   7
ATOM      7  C   UNL     1       4.131   2.095  -0.655  0.00  0.00    +0.075 C 
ATOM      8  C   UNL     1       3.425   3.190   0.073  0.00  0.00    +0.013 C 
ATOM      9  C   UNL     1       2.825   2.603  -1.169  0.00  0.00    +0.013 C 
ENDBRANCH  15   7
ENDBRANCH  13   5
ENDBRANCH  10  13
TORSDOF 7
