REMARK  Name = 51136861
REMARK  6 active torsions:
REMARK  status: ('A' for Active; 'I' for Inactive)
REMARK    1  A    between atoms: N_5  and  C_15
REMARK    2  A    between atoms: N_7  and  C_26
REMARK    3  A    between atoms: C_11  and  C_16
REMARK    4  A    between atoms: C_15  and  C_17
REMARK    5  A    between atoms: C_22  and  C_27
REMARK    6  A    between atoms: C_32  and  C_34
REMARK                            x       y       z     vdW  Elec       q    Type
REMARK                         _______ _______ _______ _____ _____    ______ ____
ROOT
ATOM      4  O   UNL     1      -2.795  -1.632   2.065  0.00  0.00    -0.336 OA
ATOM      8  N   UNL     1      -1.917  -1.348   0.024  0.00  0.00    -0.190 NA
ATOM      9  N   UNL     1      -1.410  -1.535   2.247  0.00  0.00    -0.056 NA
ATOM     16  C   UNL     1      -3.008  -1.512   0.728  0.00  0.00    +0.245 A 
ATOM     22  C   UNL     1      -0.962  -1.368   0.999  0.00  0.00    +0.204 A 
ENDROOT
BRANCH  22  27
ATOM      6  N   UNL     1       4.460  -0.804  -0.101  0.00  0.00    -0.313 N 
ATOM      7  N   UNL     1       7.287  -0.681  -0.488  0.00  0.00    -0.302 NA
ATOM     10  N   UNL     1       2.716  -1.110   1.471  0.00  0.00    -0.240 NA
ATOM     18  C   UNL     1       5.315  -0.178   0.915  0.00  0.00    +0.122 C 
ATOM     19  C   UNL     1       5.123  -1.772  -0.980  0.00  0.00    +0.122 C 
ATOM     20  C   UNL     1       6.596   0.364   0.277  0.00  0.00    +0.103 C 
ATOM     21  C   UNL     1       6.412  -1.179  -1.556  0.00  0.00    +0.103 C 
ATOM     23  C   UNL     1       3.097  -0.946   0.184  0.00  0.00    +0.121 A 
ATOM     26  C   UNL     1       8.537  -0.166  -1.047  0.00  0.00    +0.105 C 
ATOM     27  C   UNL     1       0.430  -1.221   0.692  0.00  0.00    +0.041 A 
ATOM     28  C   UNL     1       2.218  -0.910  -0.887  0.00  0.00    +0.044 A 
ATOM     31  C   UNL     1       0.861  -1.050  -0.620  0.00  0.00    +0.016 A 
ATOM     33  C   UNL     1       1.389  -1.243   1.691  0.00  0.00    +0.124 A 
ENDBRANCH  22  27
BRANCH  16  11
ATOM      5  N   UNL     1      -4.679  -0.842  -0.990  0.00  0.00    -0.287 NA
ATOM     11  C   UNL     1      -4.448  -1.585   0.265  0.00  0.00    +0.146 C 
ATOM     12  C   UNL     1      -4.902  -3.023  -0.042  0.00  0.00    +0.030 C 
ATOM     13  C   UNL     1      -5.428  -2.978  -1.470  0.00  0.00    +0.017 C 
ATOM     14  C   UNL     1      -5.781  -1.519  -1.674  0.00  0.00    +0.085 C 
BRANCH   5  15
ATOM     15  C   UNL     1      -4.951   0.574  -0.779  0.00  0.00    +0.120 C 
BRANCH  15  17
ATOM     17  C   UNL     1      -3.689   1.357  -0.535  0.00  0.00    -0.033 A 
ATOM     24  C   UNL     1      -3.534   2.078   0.650  0.00  0.00    +0.005 A 
ATOM     25  C   UNL     1      -2.675   1.362  -1.492  0.00  0.00    +0.005 A 
ATOM     29  C   UNL     1      -2.364   2.803   0.876  0.00  0.00    +0.012 A 
ATOM     30  C   UNL     1      -1.505   2.088  -1.265  0.00  0.00    +0.012 A 
ATOM     32  C   UNL     1      -1.350   2.808  -0.081  0.00  0.00    +0.055 A 
BRANCH  32  34
ATOM      1  F   UNL     1       1.029   2.811   0.167  0.00  0.00    -0.166 F 
ATOM      2  F   UNL     1      -0.105   4.225   1.366  0.00  0.00    -0.166 F 
ATOM      3  F   UNL     1       0.136   4.551  -0.770  0.00  0.00    -0.166 F 
ATOM     34  C   UNL     1      -0.099   3.581   0.163  0.00  0.00    +0.417 C 
ENDBRANCH  32  34
ENDBRANCH  15  17
ENDBRANCH   5  15
ENDBRANCH  16  11
TORSDOF 5
