REMARK  Name = 11884481
REMARK  7 active torsions:
REMARK  status: ('A' for Active; 'I' for Inactive)
REMARK    1  A    between atoms: O_4  and  C_29
REMARK    2  A    between atoms: O_4  and  C_31
REMARK    3  A    between atoms: O_5  and  C_30
REMARK    4  A    between atoms: N_9  and  C_20
REMARK    5  A    between atoms: C_19  and  C_22
REMARK    6  A    between atoms: C_25  and  C_29
REMARK    7  A    between atoms: C_26  and  C_30
REMARK                            x       y       z     vdW  Elec       q    Type
REMARK                         _______ _______ _______ _____ _____    ______ ____
ROOT
ATOM      1  O   UNL     1      -0.367   2.829   1.518  0.00  0.00    -0.266 OA
ATOM      2  O   UNL     1      -3.926  -0.759   2.612  0.00  0.00    -0.270 OA
ATOM      7  N   UNL     1      -4.479   0.179   0.541  0.00  0.00    -0.297 N 
ATOM      8  N   UNL     1      -2.068   2.182   0.053  0.00  0.00    -0.310 N 
ATOM     10  C   UNL     1      -4.543   2.667   0.504  0.00  0.00    +0.027 C 
ATOM     11  C   UNL     1      -3.886   1.431  -1.521  0.00  0.00    +0.054 C 
ATOM     12  C   UNL     1      -4.680   2.634  -1.014  0.00  0.00    +0.018 C 
ATOM     13  C   UNL     1      -5.098   1.371   1.122  0.00  0.00    +0.113 C 
ATOM     14  C   UNL     1      -3.068   2.892   0.863  0.00  0.00    +0.130 C 
ATOM     15  C   UNL     1      -4.479   0.135  -0.931  0.00  0.00    +0.117 C 
ATOM     16  C   UNL     1      -2.422   1.543  -1.140  0.00  0.00    +0.027 A 
ATOM     17  C   UNL     1      -1.475   1.000  -1.923  0.00  0.00    +0.024 A 
ATOM     18  C   UNL     1      -0.729   2.264   0.485  0.00  0.00    +0.273 A 
ATOM     19  C   UNL     1      -3.929  -0.790   1.382  0.00  0.00    +0.247 C 
ATOM     20  C   UNL     1       0.293   1.623  -0.402  0.00  0.00    +0.099 A 
ATOM     21  C   UNL     1      -0.091   1.041  -1.544  0.00  0.00    +0.030 A 
ENDROOT
BRANCH  19  22
ATOM     22  C   UNL     1      -3.276  -1.948   0.763  0.00  0.00    +0.038 A 
ATOM     23  C   UNL     1      -1.916  -1.899   0.466  0.00  0.00    +0.028 A 
ATOM     24  C   UNL     1      -4.019  -3.089   0.472  0.00  0.00    +0.013 A 
ATOM     26  C   UNL     1      -1.296  -3.000  -0.125  0.00  0.00    +0.060 A 
ATOM     27  C   UNL     1      -3.398  -4.189  -0.120  0.00  0.00    +0.002 A 
ATOM     28  C   UNL     1      -2.037  -4.144  -0.418  0.00  0.00    +0.015 A 
BRANCH  26  30
ATOM      6  O   UNL     1       0.675  -3.558  -1.362  0.00  0.00    -0.245 OA
ATOM     30  C   UNL     1       0.125  -2.955  -0.435  0.00  0.00    +0.337 C 
BRANCH  30   5
ATOM      5  O   UNL     1       0.819  -2.156   0.421  0.00  0.00    -0.477 OA
ATOM     38  H   UNL     1       1.775  -2.128   0.200  0.00  0.00    +0.295 HD
ENDBRANCH  30   5
ENDBRANCH  26  30
ENDBRANCH  19  22
BRANCH  20   9
ATOM      3  O   UNL     1       2.535   0.534  -1.821  0.00  0.00    -0.272 OA
ATOM      9  N   UNL     1       1.598   1.665  -0.010  0.00  0.00    -0.278 N 
ATOM     25  C   UNL     1       2.641   1.117  -0.745  0.00  0.00    +0.255 C 
ATOM     37  H   UNL     1       1.803   2.128   0.871  0.00  0.00    +0.155 HD
BRANCH  25  29
ATOM     29  C   UNL     1       3.974   1.321  -0.056  0.00  0.00    +0.324 C 
BRANCH  29   4
ATOM      4  O   UNL     1       5.023   0.775  -0.827  0.00  0.00    -0.483 OA
BRANCH   4  31
ATOM     31  C   UNL     1       6.133   0.329  -0.149  0.00  0.00    +0.121 A 
ATOM     32  C   UNL     1       6.495   0.936   1.046  0.00  0.00    +0.045 A 
ATOM     33  C   UNL     1       6.876  -0.721  -0.670  0.00  0.00    +0.045 A 
ATOM     34  C   UNL     1       7.621   0.484   1.733  0.00  0.00    +0.004 A 
ATOM     35  C   UNL     1       8.002  -1.173   0.017  0.00  0.00    +0.004 A 
ATOM     36  C   UNL     1       8.375  -0.571   1.218  0.00  0.00    +0.000 A 
ENDBRANCH   4  31
ENDBRANCH  29   4
ENDBRANCH  25  29
ENDBRANCH  20   9
TORSDOF 7
