REMARK  Name = 75367670
REMARK  4 active torsions:
REMARK  status: ('A' for Active; 'I' for Inactive)
REMARK    1  A    between atoms: O_5  and  C_10
REMARK    2  A    between atoms: O_5  and  C_16
REMARK    3  A    between atoms: C_15  and  C_17
REMARK    4  A    between atoms: C_20  and  C_24
REMARK                            x       y       z     vdW  Elec       q    Type
REMARK                         _______ _______ _______ _____ _____    ______ ____
ROOT
ATOM      4  O   UNL     1       0.896  -3.449  -0.601  0.00  0.00    -0.375 OA
ATOM      6  O   UNL     1       4.705  -1.234   1.373  0.00  0.00    -0.268 OA
ATOM      7  N   UNL     1       2.456  -1.079   0.732  0.00  0.00    -0.290 N 
ATOM     10  C   UNL     1       0.210  -1.111  -0.482  0.00  0.00    +0.216 C 
ATOM     11  C   UNL     1       1.389  -0.310   0.080  0.00  0.00    +0.155 C 
ATOM     12  C   UNL     1       2.140  -2.416   1.238  0.00  0.00    +0.136 C 
ATOM     13  C   UNL     1       0.643  -2.277  -1.369  0.00  0.00    +0.206 C 
ATOM     14  C   UNL     1       2.130  -3.440   0.110  0.00  0.00    +0.179 C 
ATOM     15  C   UNL     1       3.774  -0.611   0.862  0.00  0.00    +0.267 C 
ENDROOT
BRANCH  15  17
ATOM      8  N   UNL     1       3.410   1.760   0.900  0.00  0.00    -0.247 NA
ATOM      9  N   UNL     1       5.332   2.150  -1.105  0.00  0.00    -0.259 NA
ATOM     17  C   UNL     1       4.091   0.733   0.354  0.00  0.00    +0.144 A 
ATOM     23  C   UNL     1       5.035   0.924  -0.630  0.00  0.00    +0.143 A 
ATOM     25  C   UNL     1       3.707   2.986   0.425  0.00  0.00    +0.131 A 
ATOM     26  C   UNL     1       4.651   3.178  -0.560  0.00  0.00    +0.130 A 
ENDBRANCH  15  17
BRANCH  10   5
ATOM      5  O   UNL     1      -0.571  -0.201  -1.258  0.00  0.00    -0.485 OA
BRANCH   5  16
ATOM     16  C   UNL     1      -1.855   0.014  -0.838  0.00  0.00    +0.121 A 
ATOM     18  C   UNL     1      -2.752  -1.052  -0.762  0.00  0.00    +0.046 A 
ATOM     19  C   UNL     1      -2.267   1.299  -0.486  0.00  0.00    +0.046 A 
ATOM     20  C   UNL     1      -4.473   0.453   0.018  0.00  0.00    +0.055 A 
ATOM     21  C   UNL     1      -4.061  -0.833  -0.334  0.00  0.00    +0.016 A 
ATOM     22  C   UNL     1      -3.577   1.518  -0.059  0.00  0.00    +0.016 A 
BRANCH  20  24
ATOM      1  F   UNL     1      -6.565   1.565  -0.311  0.00  0.00    -0.166 F 
ATOM      2  F   UNL     1      -5.958   1.199   1.739  0.00  0.00    -0.166 F 
ATOM      3  F   UNL     1      -6.619  -0.455   0.492  0.00  0.00    -0.166 F 
ATOM     24  C   UNL     1      -5.873   0.688   0.475  0.00  0.00    +0.417 C 
ENDBRANCH  20  24
ENDBRANCH   5  16
ENDBRANCH  10   5
TORSDOF 4
