REMARK  Name = 26745437
REMARK  7 active torsions:
REMARK  status: ('A' for Active; 'I' for Inactive)
REMARK    1  A    between atoms: O_4  and  C_23
REMARK    2  A    between atoms: N_5  and  C_14
REMARK    3  A    between atoms: N_8  and  C_18
REMARK    4  A    between atoms: C_9  and  C_15
REMARK    5  A    between atoms: C_14  and  C_16
REMARK    6  A    between atoms: C_18  and  C_22
REMARK    7  A    between atoms: C_20  and  C_23
REMARK                            x       y       z     vdW  Elec       q    Type
REMARK                         _______ _______ _______ _____ _____    ______ ____
ROOT
ATOM      5  N   UNL     1      -1.773   0.557  -0.862  0.00  0.00    -0.278 NA
ATOM      6  N   UNL     1      -4.857  -1.516  -1.184  0.00  0.00    -0.347 N 
ATOM      7  N   UNL     1      -5.202  -0.948   0.952  0.00  0.00    -0.240 NA
ATOM      9  C   UNL     1      -1.641   0.374   0.606  0.00  0.00    +0.150 C 
ATOM     10  C   UNL     1      -3.013   0.281   1.334  0.00  0.00    +0.085 C 
ATOM     11  C   UNL     1      -2.530  -0.511  -1.556  0.00  0.00    +0.140 C 
ATOM     12  C   UNL     1      -3.752  -0.828  -0.784  0.00  0.00    +0.053 A 
ATOM     13  C   UNL     1      -3.985  -0.495   0.528  0.00  0.00    +0.065 A 
ATOM     17  C   UNL     1      -5.703  -1.561  -0.103  0.00  0.00    +0.197 A 
ATOM     29  H   UNL     1      -5.026  -1.919  -2.096  0.00  0.00    +0.167 HD
ENDROOT
BRANCH   9  15
ATOM      3  O   UNL     1      -1.156  -1.967   0.551  0.00  0.00    -0.274 OA
ATOM      8  N   UNL     1       0.334  -0.533   1.621  0.00  0.00    -0.310 N 
ATOM     15  C   UNL     1      -0.810  -0.843   0.905  0.00  0.00    +0.231 C 
ATOM     30  H   UNL     1       0.541   0.435   1.847  0.00  0.00    +0.149 HD
BRANCH   8  18
ATOM     18  C   UNL     1       1.290  -1.527   2.053  0.00  0.00    +0.139 C 
BRANCH  18  22
ATOM      1 CL   UNL     1       5.590  -2.441  -2.048  0.00  0.00    -0.084 Cl
ATOM     22  C   UNL     1       2.364  -1.755   1.029  0.00  0.00    -0.030 A 
ATOM     24  C   UNL     1       2.193  -2.728   0.044  0.00  0.00    +0.006 A 
ATOM     25  C   UNL     1       3.534  -0.996   1.064  0.00  0.00    +0.006 A 
ATOM     26  C   UNL     1       3.191  -2.940  -0.907  0.00  0.00    +0.020 A 
ATOM     27  C   UNL     1       4.532  -1.208   0.113  0.00  0.00    +0.020 A 
ATOM     28  C   UNL     1       4.361  -2.181  -0.872  0.00  0.00    +0.041 A 
ENDBRANCH  18  22
ENDBRANCH   8  18
ENDBRANCH   9  15
BRANCH   5  14
ATOM     14  C   UNL     1      -0.503   0.827  -1.528  0.00  0.00    +0.160 C 
BRANCH  14  16
ATOM      2  O   UNL     1       1.087   2.187  -0.291  0.00  0.00    -0.461 OA
ATOM     16  C   UNL     1       0.046   2.177  -1.165  0.00  0.00    +0.119 A 
ATOM     19  C   UNL     1      -0.286   3.459  -1.536  0.00  0.00    +0.046 A 
ATOM     20  C   UNL     1       1.423   3.490  -0.103  0.00  0.00    +0.131 A 
ATOM     21  C   UNL     1       0.608   4.312  -0.847  0.00  0.00    +0.047 A 
BRANCH  20  23
ATOM     23  C   UNL     1       2.540   3.747   0.817  0.00  0.00    +0.230 C 
BRANCH  23   4
ATOM      4  O   UNL     1       2.118   3.567   2.171  0.00  0.00    -0.387 OA
ATOM     31  H   UNL     1       2.891   3.743   2.734  0.00  0.00    +0.210 HD
ENDBRANCH  23   4
ENDBRANCH  20  23
ENDBRANCH  14  16
ENDBRANCH   5  14
TORSDOF 7
