REMARK  Name = 11865911
REMARK  5 active torsions:
REMARK  status: ('A' for Active; 'I' for Inactive)
REMARK    1  A    between atoms: O_5  and  C_28
REMARK    2  A    between atoms: O_5  and  C_29
REMARK    3  A    between atoms: N_9  and  C_16
REMARK    4  A    between atoms: C_19  and  C_21
REMARK    5  A    between atoms: C_27  and  C_28
REMARK                            x       y       z     vdW  Elec       q    Type
REMARK                         _______ _______ _______ _____ _____    ______ ____
ROOT
ATOM      1  O   UNL     1      -0.367  -0.017  -2.063  0.00  0.00    -0.273 OA
ATOM      2  O   UNL     1       2.037  -3.695   1.606  0.00  0.00    -0.274 OA
ATOM      3  O   UNL     1      -1.941   1.625  -0.082  0.00  0.00    -0.275 OA
ATOM      6  N   UNL     1      -2.340  -0.650  -0.227  0.00  0.00    -0.288 N 
ATOM      7  N   UNL     1       1.291  -1.117  -0.868  0.00  0.00    -0.287 N 
ATOM      8  N   UNL     1      -0.041  -3.252   0.835  0.00  0.00    -0.309 N 
ATOM     10  C   UNL     1      -0.964  -1.077   0.022  0.00  0.00    +0.182 C 
ATOM     11  C   UNL     1      -1.020  -2.607  -0.014  0.00  0.00    +0.104 C 
ATOM     12  C   UNL     1       1.825  -1.624   0.400  0.00  0.00    +0.164 C 
ATOM     13  C   UNL     1      -2.461  -2.913   0.385  0.00  0.00    +0.043 C 
ATOM     14  C   UNL     1      -3.235  -1.801  -0.306  0.00  0.00    +0.110 C 
ATOM     15  C   UNL     1       3.344  -1.707   0.153  0.00  0.00    +0.055 C 
ATOM     16  C   UNL     1       3.605  -0.692  -0.955  0.00  0.00    +0.092 C 
ATOM     17  C   UNL     1      -0.005  -0.657  -1.077  0.00  0.00    +0.239 C 
ATOM     18  C   UNL     1       2.359  -0.828  -1.818  0.00  0.00    +0.131 C 
ATOM     20  C   UNL     1       1.302  -2.965   0.930  0.00  0.00    +0.234 C 
ATOM     21  C   UNL     1      -2.729   0.679  -0.147  0.00  0.00    +0.219 C 
ATOM     30  H   UNL     1      -0.329  -4.129   1.257  0.00  0.00    +0.149 HD
ENDROOT
BRANCH  21  19
ATOM     19  C   UNL     1      -4.208   0.927  -0.152  0.00  0.00    +0.075 C 
ATOM     22  C   UNL     1      -4.747   0.892   1.279  0.00  0.00    +0.013 C 
ATOM     23  C   UNL     1      -4.510   2.264  -0.832  0.00  0.00    +0.013 C 
ATOM     24  C   UNL     1      -6.234   1.233   1.330  0.00  0.00    +0.001 C 
ATOM     25  C   UNL     1      -5.997   2.602  -0.776  0.00  0.00    +0.001 C 
ATOM     26  C   UNL     1      -6.529   2.569   0.653  0.00  0.00    +0.000 C 
ENDBRANCH  21  19
BRANCH  16   9
ATOM      4  O   UNL     1       6.055   0.659  -0.201  0.00  0.00    -0.273 OA
ATOM      9  N   UNL     1       3.740   0.645  -0.427  0.00  0.00    -0.309 N 
ATOM     27  C   UNL     1       4.963   1.209  -0.093  0.00  0.00    +0.239 C 
ATOM     31  H   UNL     1       2.891   1.174  -0.247  0.00  0.00    +0.149 HD
BRANCH  27  28
ATOM     28  C   UNL     1       4.805   2.619   0.435  0.00  0.00    +0.255 C 
BRANCH  28   5
ATOM      5  O   UNL     1       6.062   3.175   0.755  0.00  0.00    -0.374 OA
ATOM     29  C   UNL     1       5.943   4.504   1.255  0.00  0.00    +0.194 C 
ENDBRANCH  28   5
ENDBRANCH  27  28
ENDBRANCH  16   9
TORSDOF 4
