REMARK  Name = 40724405
REMARK  4 active torsions:
REMARK  status: ('A' for Active; 'I' for Inactive)
REMARK    1  A    between atoms: N_4  and  C_14
REMARK    2  A    between atoms: N_7  and  C_21
REMARK    3  A    between atoms: N_8  and  C_26
REMARK    4  A    between atoms: C_25  and  C_33
REMARK                            x       y       z     vdW  Elec       q    Type
REMARK                         _______ _______ _______ _____ _____    ______ ____
ROOT
ATOM      1  O   UNL     1       1.242   4.117  -2.330  0.00  0.00    -0.268 OA
ATOM      4  N   UNL     1       2.234   0.615   1.121  0.00  0.00    -0.298 NA
ATOM      5  N   UNL     1       0.635   2.910  -0.416  0.00  0.00    -0.310 N 
ATOM      9  C   UNL     1       1.989   3.027   1.757  0.00  0.00    +0.024 C 
ATOM     10  C   UNL     1       0.001   1.605   1.637  0.00  0.00    +0.052 C 
ATOM     11  C   UNL     1       0.655   2.738   2.425  0.00  0.00    +0.017 C 
ATOM     12  C   UNL     1       2.876   1.765   1.768  0.00  0.00    +0.090 C 
ATOM     13  C   UNL     1       0.905   0.352   1.691  0.00  0.00    +0.094 C 
ATOM     15  C   UNL     1       1.719   3.549   0.343  0.00  0.00    +0.130 C 
ATOM     16  C   UNL     1      -0.260   2.009   0.187  0.00  0.00    +0.047 A 
ATOM     21  C   UNL     1      -1.294   1.511  -0.529  0.00  0.00    +0.055 A 
ATOM     22  C   UNL     1       0.498   3.321  -1.755  0.00  0.00    +0.252 A 
ATOM     23  C   UNL     1      -1.480   1.904  -1.905  0.00  0.00    +0.030 A 
ATOM     24  C   UNL     1      -0.644   2.750  -2.510  0.00  0.00    +0.072 A 
ENDROOT
BRANCH   4  14
ATOM      2  O   UNL     1       6.407  -3.016  -1.565  0.00  0.00    -0.276 OA
ATOM      6  N   UNL     1       4.651  -2.633  -0.093  0.00  0.00    -0.302 N 
ATOM     14  C   UNL     1       3.082  -0.572   1.201  0.00  0.00    +0.060 C 
ATOM     17  C   UNL     1       4.462  -0.275   0.600  0.00  0.00    +0.038 C 
ATOM     18  C   UNL     1       2.418  -1.744   0.465  0.00  0.00    +0.038 C 
ATOM     19  C   UNL     1       5.333  -1.530   0.587  0.00  0.00    +0.109 C 
ATOM     20  C   UNL     1       3.330  -2.971   0.454  0.00  0.00    +0.109 C 
ATOM     25  C   UNL     1       5.281  -3.295  -1.146  0.00  0.00    +0.212 C 
ATOM     33  C   UNL     1       4.512  -4.418  -1.796  0.00  0.00    +0.109 C 
ENDBRANCH   4  14
BRANCH  21   7
ATOM      3  O   UNL     1      -4.020   1.222  -1.344  0.00  0.00    -0.253 OA
ATOM      7  N   UNL     1      -2.197   0.609  -0.035  0.00  0.00    -0.268 N 
ATOM      8  N   UNL     1      -4.195  -0.491   0.210  0.00  0.00    -0.296 N 
ATOM     29  C   UNL     1      -3.515   0.516  -0.472  0.00  0.00    +0.304 C 
ATOM     34  H   UNL     1      -1.970   0.128   0.830  0.00  0.00    +0.156 HD
ATOM     35  H   UNL     1      -3.667  -1.071   0.855  0.00  0.00    +0.151 HD
BRANCH   8  26
ATOM     26  C   UNL     1      -5.583  -0.810  -0.041  0.00  0.00    +0.074 C 
ATOM     27  C   UNL     1      -5.716  -1.837  -1.170  0.00  0.00    +0.022 C 
ATOM     28  C   UNL     1      -6.276  -1.297   1.237  0.00  0.00    +0.022 C 
ATOM     30  C   UNL     1      -5.259  -3.234  -0.749  0.00  0.00    +0.002 C 
ATOM     31  C   UNL     1      -5.818  -2.695   1.655  0.00  0.00    +0.002 C 
ATOM     32  C   UNL     1      -5.971  -3.700   0.518  0.00  0.00    +0.000 C 
ENDBRANCH   8  26
ENDBRANCH  21   7
TORSDOF 3
