REMARK  Name = 40781523
REMARK  9 active torsions:
REMARK  status: ('A' for Active; 'I' for Inactive)
REMARK    1  A    between atoms: O_2  and  C_10
REMARK    2  A    between atoms: O_3  and  C_11
REMARK    3  A    between atoms: N_7  and  C_14
REMARK    4  A    between atoms: N_8  and  C_21
REMARK    5  A    between atoms: C_9  and  C_13
REMARK    6  A    between atoms: C_12  and  C_14
REMARK    7  A    between atoms: C_13  and  C_15
REMARK    8  A    between atoms: C_21  and  C_22
REMARK    9  A    between atoms: C_21  and  C_23
REMARK                            x       y       z     vdW  Elec       q    Type
REMARK                         _______ _______ _______ _____ _____    ______ ____
ROOT
ATOM      1  O   UNL     1       1.514  -0.128  -0.613  0.00  0.00    -0.366 OA
ATOM      9  C   UNL     1       1.791   1.250  -0.305  0.00  0.00    +0.159 C 
ATOM     10  C   UNL     1       2.992   1.230   0.624  0.00  0.00    +0.175 C 
ATOM     11  C   UNL     1       3.784   0.063   0.072  0.00  0.00    +0.176 C 
ATOM     12  C   UNL     1       2.681  -0.922  -0.299  0.00  0.00    +0.167 C 
ENDROOT
BRANCH  10   2
ATOM      2  O   UNL     1       3.702   2.450   0.599  0.00  0.00    -0.387 OA
ATOM     24  H   UNL     1       4.514   2.325   1.120  0.00  0.00    +0.210 HD
ENDBRANCH  10   2
BRANCH  11   3
ATOM      3  O   UNL     1       4.458   0.445  -1.127  0.00  0.00    -0.387 OA
ATOM     25  H   UNL     1       4.920  -0.341  -1.463  0.00  0.00    +0.210 HD
ENDBRANCH  11   3
BRANCH   9  13
ATOM     13  C   UNL     1       0.562   1.893   0.312  0.00  0.00    +0.130 C 
BRANCH  13  15
ATOM      4  O   UNL     1      -0.485   1.262  -1.732  0.00  0.00    -0.276 OA
ATOM      6  N   UNL     1      -1.802   2.318  -0.155  0.00  0.00    -0.301 N 
ATOM     15  C   UNL     1      -0.614   1.788  -0.625  0.00  0.00    +0.218 C 
ATOM     16  C   UNL     1      -3.026   2.301  -0.942  0.00  0.00    +0.108 C 
ATOM     17  C   UNL     1      -2.022   2.948   1.143  0.00  0.00    +0.108 C 
ATOM     18  C   UNL     1      -4.120   2.667   0.049  0.00  0.00    +0.020 C 
ATOM     19  C   UNL     1      -3.398   3.587   1.026  0.00  0.00    +0.020 C 
ENDBRANCH  13  15
ENDBRANCH   9  13
BRANCH  12  14
ATOM     14  C   UNL     1       2.312  -1.861   0.842  0.00  0.00    +0.140 C 
BRANCH  14   7
ATOM      5  O   UNL     1      -0.535  -1.435   1.045  0.00  0.00    -0.253 OA
ATOM      7  N   UNL     1       1.243  -2.775   0.399  0.00  0.00    -0.297 N 
ATOM      8  N   UNL     1      -0.880  -3.501   0.047  0.00  0.00    -0.297 N 
ATOM     20  C   UNL     1      -0.090  -2.468   0.547  0.00  0.00    +0.300 C 
ATOM     26  H   UNL     1       1.510  -3.653  -0.035  0.00  0.00    +0.150 HD
ATOM     27  H   UNL     1      -0.421  -4.280  -0.415  0.00  0.00    +0.150 HD
BRANCH   8  21
ATOM     21  C   UNL     1      -2.323  -3.461   0.065  0.00  0.00    +0.068 C 
ATOM     22  C   UNL     1      -2.889  -4.867   0.219  0.00  0.00    +0.027 C 
ATOM     23  C   UNL     1      -2.855  -2.786  -1.193  0.00  0.00    +0.027 C 
ENDBRANCH   8  21
ENDBRANCH  14   7
ENDBRANCH  12  14
TORSDOF 7
