REMARK  Name = 51136698
REMARK  8 active torsions:
REMARK  status: ('A' for Active; 'I' for Inactive)
REMARK    1  A    between atoms: O_2  and  C_15
REMARK    2  A    between atoms: C_6  and  C_11
REMARK    3  A    between atoms: C_7  and  C_12
REMARK    4  A    between atoms: C_11  and  C_13
REMARK    5  A    between atoms: C_12  and  C_15
REMARK    6  A    between atoms: C_14  and  C_17
REMARK    7  A    between atoms: C_17  and  C_21
REMARK    8  A    between atoms: C_21  and  C_25
REMARK                            x       y       z     vdW  Elec       q    Type
REMARK                         _______ _______ _______ _____ _____    ______ ____
ROOT
ATOM      1  O   UNL     1      -0.090  -3.491   1.208  0.00  0.00    -0.276 OA
ATOM      4  N   UNL     1      -1.363  -2.152  -0.200  0.00  0.00    -0.301 N 
ATOM      6  C   UNL     1      -2.422   0.019  -0.781  0.00  0.00    +0.016 C 
ATOM      7  C   UNL     1      -3.786  -0.570  -0.340  0.00  0.00    +0.006 C 
ATOM      8  C   UNL     1      -3.609  -1.686   0.704  0.00  0.00    +0.023 C 
ATOM      9  C   UNL     1      -1.484  -1.115  -1.233  0.00  0.00    +0.112 C 
ATOM     10  C   UNL     1      -2.631  -2.752   0.215  0.00  0.00    +0.108 C 
ATOM     14  C   UNL     1      -0.167  -2.599   0.360  0.00  0.00    +0.216 C 
ENDROOT
BRANCH   6  11
ATOM     11  C   UNL     1      -1.740   0.880   0.289  0.00  0.00    +0.061 C 
BRANCH  11  13
ATOM      5  N   UNL     1      -0.952   2.176  -1.573  0.00  0.00    -0.287 NA
ATOM     13  C   UNL     1      -0.729   1.797  -0.358  0.00  0.00    +0.044 C 
ATOM     16  C   UNL     1       0.465   2.209   0.422  0.00  0.00    -0.001 A 
ATOM     18  C   UNL     1       1.548   2.720  -0.304  0.00  0.00    -0.037 A 
ATOM     19  C   UNL     1      -0.002   3.115  -2.180  0.00  0.00    +0.146 C 
ATOM     20  C   UNL     1       1.439   2.802  -1.798  0.00  0.00    +0.059 C 
ATOM     22  C   UNL     1       0.537   2.090   1.812  0.00  0.00    +0.010 A 
ATOM     23  C   UNL     1       2.717   3.089   0.367  0.00  0.00    +0.004 A 
ATOM     24  C   UNL     1       1.703   2.476   2.475  0.00  0.00    +0.001 A 
ATOM     26  C   UNL     1       2.791   2.971   1.755  0.00  0.00    +0.000 A 
ENDBRANCH  11  13
ENDBRANCH   6  11
BRANCH   7  12
ATOM     12  C   UNL     1      -4.763   0.490   0.167  0.00  0.00    +0.124 C 
BRANCH  12  15
ATOM      3  O   UNL     1      -6.573  -1.059  -0.348  0.00  0.00    -0.251 OA
ATOM     15  C   UNL     1      -6.189   0.023   0.070  0.00  0.00    +0.305 C 
BRANCH  15   2
ATOM      2  O   UNL     1      -7.021   0.995   0.524  0.00  0.00    -0.481 OA
ATOM     32  H   UNL     1      -7.963   0.723   0.475  0.00  0.00    +0.295 HD
ENDBRANCH  15   2
ENDBRANCH  12  15
ENDBRANCH   7  12
BRANCH  14  17
ATOM     17  C   UNL     1       1.096  -1.928  -0.120  0.00  0.00    +0.100 C 
BRANCH  17  21
ATOM     21  C   UNL     1       2.313  -2.518   0.578  0.00  0.00    +0.044 C 
BRANCH  21  25
ATOM     25  C   UNL     1       3.615  -1.901   0.129  0.00  0.00    -0.047 A 
ATOM     27  C   UNL     1       4.312  -2.448  -0.949  0.00  0.00    +0.003 A 
ATOM     28  C   UNL     1       4.122  -0.783   0.792  0.00  0.00    +0.003 A 
ATOM     29  C   UNL     1       5.515  -1.877  -1.363  0.00  0.00    +0.000 A 
ATOM     30  C   UNL     1       5.325  -0.213   0.378  0.00  0.00    +0.000 A 
ATOM     31  C   UNL     1       6.022  -0.760  -0.700  0.00  0.00    +0.000 A 
ENDBRANCH  21  25
ENDBRANCH  17  21
ENDBRANCH  14  17
TORSDOF 8
