REMARK  Name = 7050094
REMARK  11 active torsions:
REMARK  status: ('A' for Active; 'I' for Inactive)
REMARK    1  A    between atoms: O_2  and  C_11
REMARK    2  A    between atoms: O_3  and  C_12
REMARK    3  A    between atoms: N_7  and  C_13
REMARK    4  A    between atoms: N_8  and  C_17
REMARK    5  A    between atoms: N_9  and  C_25
REMARK    6  A    between atoms: C_15  and  C_18
REMARK    7  A    between atoms: C_17  and  C_19
REMARK    8  A    between atoms: C_17  and  C_24
REMARK    9  A    between atoms: C_19  and  C_20
REMARK   10  A    between atoms: C_20  and  C_21
REMARK   11  A    between atoms: C_20  and  C_22
REMARK                            x       y       z     vdW  Elec       q    Type
REMARK                         _______ _______ _______ _____ _____    ______ ____
ROOT
ATOM     11  C   UNL     1      -0.153   2.924   0.587  0.00  0.00    +0.167 C 
ATOM     12  C   UNL     1       1.092   3.776   0.312  0.00  0.00    +0.149 C 
ATOM     13  C   UNL     1      -0.259   1.744  -0.398  0.00  0.00    +0.129 C 
ATOM     14  C   UNL     1       2.383   2.940   0.340  0.00  0.00    +0.074 C 
ATOM     15  C   UNL     1       2.226   1.579  -0.277  0.00  0.00    +0.015 C 
ATOM     16  C   UNL     1       1.049   1.035  -0.620  0.00  0.00    +0.006 C 
ENDROOT
BRANCH  13   7
ATOM      5  O   UNL     1      -3.051   1.753  -1.038  0.00  0.00    -0.252 OA
ATOM      7  N   UNL     1      -1.245   0.781   0.029  0.00  0.00    -0.290 N 
ATOM      9  N   UNL     1      -3.309  -0.207   0.227  0.00  0.00    -0.269 N 
ATOM     23  C   UNL     1      -2.596   0.858  -0.330  0.00  0.00    +0.304 C 
ATOM     31  H   UNL     1      -0.959   0.040   0.662  0.00  0.00    +0.151 HD
ATOM     35  H   UNL     1      -2.778  -0.865   0.792  0.00  0.00    +0.156 HD
BRANCH   9  25
ATOM      1  F   UNL     1      -7.119  -2.953   1.224  0.00  0.00    -0.205 F 
ATOM     25  C   UNL     1      -4.689  -0.487   0.103  0.00  0.00    +0.037 A 
ATOM     26  C   UNL     1      -5.234  -1.604   0.737  0.00  0.00    +0.061 A 
ATOM     27  C   UNL     1      -5.507   0.354  -0.652  0.00  0.00    +0.023 A 
ATOM     28  C   UNL     1      -6.596  -1.880   0.615  0.00  0.00    +0.125 A 
ATOM     29  C   UNL     1      -6.869   0.078  -0.774  0.00  0.00    +0.005 A 
ATOM     30  C   UNL     1      -7.413  -1.039  -0.140  0.00  0.00    +0.038 A 
ENDBRANCH   9  25
ENDBRANCH  13   7
BRANCH  15  18
ATOM      4  O   UNL     1       4.312   1.234  -1.283  0.00  0.00    -0.271 OA
ATOM      8  N   UNL     1       3.446  -0.419   0.116  0.00  0.00    -0.300 N 
ATOM     18  C   UNL     1       3.437   0.798  -0.542  0.00  0.00    +0.241 C 
ATOM     32  H   UNL     1       2.692  -0.641   0.761  0.00  0.00    +0.150 HD
BRANCH   8  17
ATOM     17  C   UNL     1       4.530  -1.361   0.008  0.00  0.00    +0.159 C 
BRANCH  17  24
ATOM      6  O   UNL     1       5.280  -0.506   2.156  0.00  0.00    -0.274 OA
ATOM     10  N   UNL     1       6.856  -1.251   0.660  0.00  0.00    -0.328 N 
ATOM     24  C   UNL     1       5.564  -0.974   1.056  0.00  0.00    +0.231 C 
ATOM     36  H   UNL     1       7.641  -1.054   1.272  0.00  0.00    +0.145 HD
ATOM     37  H   UNL     1       7.074  -1.659  -0.243  0.00  0.00    +0.145 HD
ENDBRANCH  17  24
BRANCH  17  19
ATOM     19  C   UNL     1       4.067  -2.807   0.226  0.00  0.00    +0.034 C 
BRANCH  19  20
ATOM     20  C   UNL     1       2.963  -3.286  -0.738  0.00  0.00    -0.015 C 
ATOM     21  C   UNL     1       2.551  -4.717  -0.382  0.00  0.00    +0.007 C 
ATOM     22  C   UNL     1       3.402  -3.226  -2.202  0.00  0.00    +0.007 C 
ENDBRANCH  19  20
ENDBRANCH  17  19
ENDBRANCH   8  17
ENDBRANCH  15  18
BRANCH  11   2
ATOM      2  O   UNL     1      -0.082   2.426   1.925  0.00  0.00    -0.387 OA
ATOM     33  H   UNL     1      -0.046   3.193   2.521  0.00  0.00    +0.210 HD
ENDBRANCH  11   2
BRANCH  12   3
ATOM      3  O   UNL     1       0.965   4.439  -0.944  0.00  0.00    -0.389 OA
ATOM     34  H   UNL     1       1.749   5.001  -1.061  0.00  0.00    +0.210 HD
ENDBRANCH  12   3
TORSDOF 9
