REMARK  Name = 28960454
REMARK  8 active torsions:
REMARK  status: ('A' for Active; 'I' for Inactive)
REMARK    1  A    between atoms: O_3  and  C_10
REMARK    2  A    between atoms: O_5  and  C_22
REMARK    3  A    between atoms: O_5  and  C_30
REMARK    4  A    between atoms: N_6  and  C_9
REMARK    5  A    between atoms: N_7  and  C_11
REMARK    6  A    between atoms: N_7  and  C_19
REMARK    7  A    between atoms: N_8  and  C_20
REMARK    8  A    between atoms: C_19  and  C_21
REMARK                            x       y       z     vdW  Elec       q    Type
REMARK                         _______ _______ _______ _____ _____    ______ ____
ROOT
ATOM      1  O   UNL     1       2.083  -2.049  -1.573  0.00  0.00    -0.343 OA
ATOM      2  O   UNL     1       2.499  -3.895  -0.232  0.00  0.00    -0.347 OA
ATOM      9  C   UNL     1       1.182  -2.077   0.667  0.00  0.00    +0.143 C 
ATOM     10  C   UNL     1       2.459  -1.390   1.204  0.00  0.00    +0.156 C 
ATOM     11  C   UNL     1       3.462  -0.978   0.099  0.00  0.00    +0.116 C 
ATOM     12  C   UNL     1       3.434  -1.936  -1.114  0.00  0.00    +0.166 C 
ATOM     13  C   UNL     1       1.508  -2.914  -0.584  0.00  0.00    +0.270 C 
ATOM     14  C   UNL     1       3.729  -3.385  -0.769  0.00  0.00    +0.196 C 
ENDROOT
BRANCH   9   6
ATOM      6  N   UNL     1       0.154  -1.085   0.350  0.00  0.00    -0.290 NA
ATOM      8  N   UNL     1      -2.495  -0.024   0.223  0.00  0.00    -0.325 N 
ATOM     15  C   UNL     1      -0.528  -0.642   1.571  0.00  0.00    +0.104 C 
ATOM     16  C   UNL     1      -0.823  -1.640  -0.595  0.00  0.00    +0.104 C 
ATOM     17  C   UNL     1      -1.568   0.438   1.261  0.00  0.00    +0.120 C 
ATOM     18  C   UNL     1      -1.872  -0.593  -0.979  0.00  0.00    +0.120 C 
BRANCH   8  20
ATOM     20  C   UNL     1      -3.746   0.588   0.088  0.00  0.00    +0.072 A 
ATOM     22  C   UNL     1      -4.843  -0.134  -0.383  0.00  0.00    +0.141 A 
ATOM     23  C   UNL     1      -3.891   1.933   0.430  0.00  0.00    +0.027 A 
ATOM     25  C   UNL     1      -6.084   0.489  -0.511  0.00  0.00    +0.047 A 
ATOM     26  C   UNL     1      -5.132   2.555   0.302  0.00  0.00    +0.002 A 
ATOM     27  C   UNL     1      -6.229   1.833  -0.169  0.00  0.00    +0.004 A 
BRANCH  22   5
ATOM      5  O   UNL     1      -4.722  -1.448  -0.723  0.00  0.00    -0.493 OA
ATOM     30  C   UNL     1      -4.956  -2.407   0.307  0.00  0.00    +0.277 C 
ENDBRANCH  22   5
ENDBRANCH   8  20
ENDBRANCH   9   6
BRANCH  10   3
ATOM      3  O   UNL     1       3.109  -2.315   2.088  0.00  0.00    -0.388 OA
ATOM     32  H   UNL     1       3.877  -1.861   2.475  0.00  0.00    +0.210 HD
ENDBRANCH  10   3
BRANCH  11   7
ATOM      7  N   UNL     1       3.170   0.377  -0.382  0.00  0.00    -0.302 NA
ATOM     31  H   UNL     1       3.656   0.534  -1.265  0.00  0.00    +0.123 HD
BRANCH   7  19
ATOM     19  C   UNL     1       3.622   1.367   0.580  0.00  0.00    +0.156 C 
BRANCH  19  21
ATOM      4  O   UNL     1       4.419   3.590  -0.010  0.00  0.00    -0.467 OA
ATOM     21  C   UNL     1       3.342   2.771   0.113  0.00  0.00    +0.119 A 
ATOM     24  C   UNL     1       2.188   3.435  -0.232  0.00  0.00    +0.046 A 
ATOM     28  C   UNL     1       2.581   4.746  -0.590  0.00  0.00    +0.041 A 
ATOM     29  C   UNL     1       3.947   4.790  -0.438  0.00  0.00    +0.195 A 
ENDBRANCH  19  21
ENDBRANCH   7  19
ENDBRANCH  11   7
TORSDOF 7
