REMARK  Name = 71693219
REMARK  7 active torsions:
REMARK  status: ('A' for Active; 'I' for Inactive)
REMARK    1  A    between atoms: O_2  and  C_17
REMARK    2  A    between atoms: O_2  and  C_22
REMARK    3  A    between atoms: O_3  and  C_23
REMARK    4  A    between atoms: N_6  and  C_16
REMARK    5  A    between atoms: C_8  and  C_12
REMARK    6  A    between atoms: C_13  and  C_17
REMARK    7  A    between atoms: C_22  and  C_23
REMARK                            x       y       z     vdW  Elec       q    Type
REMARK                         _______ _______ _______ _____ _____    ______ ____
ROOT
ATOM      1  O   UNL     1       2.796   1.264   1.655  0.00  0.00    -0.273 OA
ATOM      5  N   UNL     1       1.033   1.541   0.188  0.00  0.00    -0.299 N 
ATOM      8  C   UNL     1      -1.080   1.836  -0.868  0.00  0.00    +0.074 C 
ATOM      9  C   UNL     1      -0.856   2.951   0.165  0.00  0.00    +0.032 C 
ATOM     10  C   UNL     1       0.345   1.304  -1.080  0.00  0.00    +0.119 C 
ATOM     11  C   UNL     1       0.254   2.410   1.056  0.00  0.00    +0.108 C 
ATOM     13  C   UNL     1       2.262   1.033   0.569  0.00  0.00    +0.241 C 
ENDROOT
BRANCH   8  12
ATOM      6  N   UNL     1      -2.922   0.151  -1.259  0.00  0.00    -0.330 N 
ATOM      7  N   UNL     1      -2.352   0.506   0.860  0.00  0.00    -0.232 NA
ATOM     12  C   UNL     1      -2.114   0.832  -0.391  0.00  0.00    +0.115 A 
ATOM     14  C   UNL     1      -3.735  -0.669  -0.519  0.00  0.00    +0.069 A 
ATOM     15  C   UNL     1      -3.360  -0.429   0.800  0.00  0.00    +0.089 A 
ATOM     16  C   UNL     1      -2.922   0.270  -2.700  0.00  0.00    +0.150 C 
ATOM     18  C   UNL     1      -4.736  -1.572  -0.879  0.00  0.00    +0.028 A 
ATOM     19  C   UNL     1      -4.011  -1.122   1.834  0.00  0.00    +0.030 A 
ATOM     20  C   UNL     1      -5.373  -2.253   0.163  0.00  0.00    +0.002 A 
ATOM     21  C   UNL     1      -5.019  -2.034   1.496  0.00  0.00    +0.002 A 
ENDBRANCH   8  12
BRANCH  13  17
ATOM     17  C   UNL     1       2.939   0.141  -0.441  0.00  0.00    +0.256 C 
BRANCH  17   2
ATOM      2  O   UNL     1       4.174  -0.236   0.119  0.00  0.00    -0.359 OA
BRANCH   2  22
ATOM     22  C   UNL     1       4.917  -1.090  -0.748  0.00  0.00    +0.280 C 
BRANCH  22  23
ATOM      4  O   UNL     1       6.615  -1.076   0.990  0.00  0.00    -0.248 OA
ATOM     23  C   UNL     1       6.223  -1.460  -0.102  0.00  0.00    +0.331 C 
BRANCH  23   3
ATOM      3  O   UNL     1       6.924  -2.297  -0.908  0.00  0.00    -0.479 OA
ATOM     24  H   UNL     1       7.782  -2.556  -0.509  0.00  0.00    +0.295 HD
ENDBRANCH  23   3
ENDBRANCH  22  23
ENDBRANCH   2  22
ENDBRANCH  17   2
ENDBRANCH  13  17
TORSDOF 6
