REMARK  Name = 9391205
REMARK  8 active torsions:
REMARK  status: ('A' for Active; 'I' for Inactive)
REMARK    1  A    between atoms: S_1  and  N_9
REMARK    2  A    between atoms: S_1  and  C_23
REMARK    3  A    between atoms: O_4  and  C_22
REMARK    4  A    between atoms: O_4  and  C_25
REMARK    5  A    between atoms: N_9  and  C_17
REMARK    6  A    between atoms: C_19  and  C_22
REMARK    7  A    between atoms: C_23  and  C_24
REMARK    8  A    between atoms: C_24  and  C_26
REMARK                            x       y       z     vdW  Elec       q    Type
REMARK                         _______ _______ _______ _____ _____    ______ ____
ROOT
ATOM      2  O   UNL     1       2.967  -0.062  -3.361  0.00  0.00    -0.268 OA
ATOM      3  O   UNL     1       1.341  -3.463   0.427  0.00  0.00    -0.272 OA
ATOM      7  N   UNL     1       2.008  -1.451   1.378  0.00  0.00    -0.298 N 
ATOM      8  N   UNL     1       2.747   0.453  -1.085  0.00  0.00    -0.310 N 
ATOM     10  C   UNL     1       4.256  -0.607   0.693  0.00  0.00    +0.027 C 
ATOM     11  C   UNL     1       2.506   0.985   1.363  0.00  0.00    +0.055 C 
ATOM     12  C   UNL     1       4.000   0.677   1.466  0.00  0.00    +0.018 C 
ATOM     13  C   UNL     1       3.434  -1.769   1.276  0.00  0.00    +0.113 C 
ATOM     14  C   UNL     1       3.936  -0.354  -0.782  0.00  0.00    +0.130 C 
ATOM     15  C   UNL     1       1.702  -0.160   2.012  0.00  0.00    +0.117 C 
ATOM     16  C   UNL     1       2.062   1.173  -0.086  0.00  0.00    +0.049 A 
ATOM     17  C   UNL     1       1.035   1.967  -0.457  0.00  0.00    +0.068 A 
ATOM     18  C   UNL     1       2.395   0.534  -2.447  0.00  0.00    +0.252 A 
ATOM     19  C   UNL     1       1.061  -2.384   0.958  0.00  0.00    +0.253 C 
ATOM     20  C   UNL     1       0.630   2.100  -1.827  0.00  0.00    +0.031 A 
ATOM     21  C   UNL     1       1.254   1.421  -2.791  0.00  0.00    +0.072 A 
ENDROOT
BRANCH  17   9
ATOM      9  N   UNL     1       0.311   2.674   0.532  0.00  0.00    -0.219 N 
ATOM     32  H   UNL     1       0.793   2.863   1.417  0.00  0.00    +0.173 HD
BRANCH   9   1
ATOM      1  S   UNL     1      -1.323   2.229   0.690  0.00  0.00    +0.043 S 
ATOM      5  O   UNL     1      -1.720   1.406  -0.437  0.00  0.00    -0.155 OA
ATOM      6  O   UNL     1      -1.578   1.807   2.053  0.00  0.00    -0.155 OA
BRANCH   1  23
ATOM     23  C   UNL     1      -2.079   3.820   0.470  0.00  0.00    +0.188 C 
BRANCH  23  24
ATOM     24  C   UNL     1      -3.593   3.731   0.564  0.00  0.00    +0.021 C 
ATOM     26  C   UNL     1      -4.244   5.089   0.356  0.00  0.00    +0.005 C 
ENDBRANCH  23  24
ENDBRANCH   1  23
ENDBRANCH   9   1
ENDBRANCH  17   9
BRANCH  19  22
ATOM     22  C   UNL     1      -0.387  -2.021   1.171  0.00  0.00    +0.324 C 
BRANCH  22   4
ATOM      4  O   UNL     1      -1.149  -3.080   0.645  0.00  0.00    -0.483 OA
BRANCH   4  25
ATOM     25  C   UNL     1      -2.370  -2.767   0.092  0.00  0.00    +0.121 A 
ATOM     27  C   UNL     1      -3.080  -1.679   0.578  0.00  0.00    +0.045 A 
ATOM     28  C   UNL     1      -2.869  -3.545  -0.942  0.00  0.00    +0.045 A 
ATOM     29  C   UNL     1      -4.317  -1.362   0.017  0.00  0.00    +0.004 A 
ATOM     30  C   UNL     1      -4.106  -3.228  -1.503  0.00  0.00    +0.004 A 
ATOM     31  C   UNL     1      -4.830  -2.136  -1.023  0.00  0.00    +0.000 A 
ENDBRANCH   4  25
ENDBRANCH  22   4
ENDBRANCH  19  22
TORSDOF 7
