REMARK  Name = 38031261
REMARK  14 active torsions:
REMARK  status: ('A' for Active; 'I' for Inactive)
REMARK    1  A    between atoms: O_3  and  C_23
REMARK    2  A    between atoms: O_3  and  C_27
REMARK    3  A    between atoms: O_4  and  C_30
REMARK    4  A    between atoms: O_4  and  C_31
REMARK    5  A    between atoms: N_5  and  C_15
REMARK    6  A    between atoms: C_8  and  C_12
REMARK    7  A    between atoms: C_9  and  C_15
REMARK    8  A    between atoms: C_11  and  C_16
REMARK    9  A    between atoms: C_12  and  C_17
REMARK   10  A    between atoms: C_12  and  C_18
REMARK   11  A    between atoms: C_13  and  C_19
REMARK   12  A    between atoms: C_16  and  C_20
REMARK   13  A    between atoms: C_21  and  C_23
REMARK   14  A    between atoms: C_22  and  C_24
REMARK                            x       y       z     vdW  Elec       q    Type
REMARK                         _______ _______ _______ _____ _____    ______ ____
ROOT
ATOM      8  C   UNL     1       2.037   0.482  -1.361  0.00  0.00    +0.000 C 
ATOM      9  C   UNL     1       3.584   0.421  -1.383  0.00  0.00    +0.032 C 
ATOM     10  C   UNL     1       1.561   1.904  -1.026  0.00  0.00    +0.012 C 
ATOM     11  C   UNL     1       2.088   2.388   0.338  0.00  0.00    +0.024 C 
ATOM     13  C   UNL     1       3.570   2.115   0.498  0.00  0.00    -0.073 C 
ATOM     14  C   UNL     1       4.224   1.242  -0.289  0.00  0.00    -0.022 C 
ATOM     19  C   UNL     1       4.293   2.901   1.556  0.00  0.00    +0.039 C 
ENDROOT
BRANCH   8  12
ATOM     12  C   UNL     1       1.431   0.034  -2.695  0.00  0.00    -0.013 C 
ATOM     17  C   UNL     1       0.005  -0.469  -2.489  0.00  0.00    +0.007 C 
ATOM     18  C   UNL     1       1.460   1.177  -3.704  0.00  0.00    +0.007 C 
ENDBRANCH   8  12
BRANCH   9  15
ATOM     15  C   UNL     1       4.082  -1.026  -1.293  0.00  0.00    +0.112 C 
BRANCH  15   5
ATOM      2  O   UNL     1       2.442  -3.359  -0.811  0.00  0.00    -0.273 OA
ATOM      5  N   UNL     1       3.748  -1.599  -0.027  0.00  0.00    -0.313 N 
ATOM     21  C   UNL     1       2.947  -2.732   0.116  0.00  0.00    +0.239 C 
ATOM     32  H   UNL     1       4.162  -1.192   0.807  0.00  0.00    +0.149 HD
BRANCH  21  23
ATOM     23  C   UNL     1       2.758  -3.120   1.567  0.00  0.00    +0.255 C 
BRANCH  23   3
ATOM      3  O   UNL     1       1.954  -4.275   1.673  0.00  0.00    -0.374 OA
ATOM     27  C   UNL     1       1.760  -4.664   3.030  0.00  0.00    +0.194 C 
ENDBRANCH  23   3
ENDBRANCH  21  23
ENDBRANCH  15   5
ENDBRANCH   9  15
BRANCH  11  16
ATOM     16  C   UNL     1       1.289   1.770   1.491  0.00  0.00    +0.105 C 
BRANCH  16  20
ATOM      1  O   UNL     1      -0.973   1.051   0.919  0.00  0.00    -0.420 OA
ATOM      6  N   UNL     1      -0.833   3.174   1.611  0.00  0.00    -0.112 NA
ATOM      7  N   UNL     1      -2.159   2.904   1.324  0.00  0.00    -0.107 NA
ATOM     20  C   UNL     1      -0.178   2.064   1.361  0.00  0.00    +0.218 A 
ATOM     22  C   UNL     1      -2.193   1.655   0.924  0.00  0.00    +0.248 A 
BRANCH  22  24
ATOM     24  C   UNL     1      -3.296   0.843   0.499  0.00  0.00    +0.039 A 
ATOM     25  C   UNL     1      -4.585   1.376   0.472  0.00  0.00    +0.017 A 
ATOM     26  C   UNL     1      -3.080  -0.480   0.113  0.00  0.00    +0.017 A 
ATOM     28  C   UNL     1      -5.657   0.587   0.059  0.00  0.00    +0.046 A 
ATOM     29  C   UNL     1      -4.153  -1.270  -0.300  0.00  0.00    +0.046 A 
ATOM     30  C   UNL     1      -5.442  -0.737  -0.327  0.00  0.00    +0.120 A 
BRANCH  30   4
ATOM      4  O   UNL     1      -6.488  -1.506  -0.733  0.00  0.00    -0.495 OA
ATOM     31  C   UNL     1      -6.196  -2.850  -1.114  0.00  0.00    +0.277 C 
ENDBRANCH  30   4
ENDBRANCH  22  24
ENDBRANCH  16  20
ENDBRANCH  11  16
TORSDOF 9
