REMARK  Name = 11941993
REMARK  5 active torsions:
REMARK  status: ('A' for Active; 'I' for Inactive)
REMARK    1  A    between atoms: O_3  and  C_24
REMARK    2  A    between atoms: N_6  and  C_16
REMARK    3  A    between atoms: C_10  and  C_17
REMARK    4  A    between atoms: C_11  and  C_16
REMARK    5  A    between atoms: C_23  and  C_24
REMARK                            x       y       z     vdW  Elec       q    Type
REMARK                         _______ _______ _______ _____ _____    ______ ____
ROOT
ATOM      4  N   UNL     1      -0.286   2.675  -0.568  0.00  0.00    -0.297 NA
ATOM      9  C   UNL     1       0.781   1.094   1.202  0.00  0.00    +0.005 C 
ATOM     10  C   UNL     1       1.628   1.143  -0.084  0.00  0.00    +0.092 C 
ATOM     11  C   UNL     1      -1.295   1.692  -0.091  0.00  0.00    +0.078 C 
ATOM     12  C   UNL     1      -0.650   0.647   0.845  0.00  0.00    +0.025 C 
ATOM     13  C   UNL     1       0.692   2.537   1.730  0.00  0.00    +0.020 C 
ATOM     14  C   UNL     1       0.885   1.970  -1.148  0.00  0.00    +0.097 C 
ATOM     15  C   UNL     1       0.180   3.456   0.605  0.00  0.00    +0.085 C 
ENDROOT
BRANCH  10  17
ATOM      1  O   UNL     1       1.197  -0.788  -1.391  0.00  0.00    -0.275 OA
ATOM      2  O   UNL     1       5.743  -1.758   0.298  0.00  0.00    -0.377 OA
ATOM      5  N   UNL     1       3.107  -0.832  -0.072  0.00  0.00    -0.297 N 
ATOM     17  C   UNL     1       1.950  -0.245  -0.578  0.00  0.00    +0.220 C 
ATOM     18  C   UNL     1       3.496  -2.175  -0.503  0.00  0.00    +0.136 C 
ATOM     19  C   UNL     1       3.954  -0.271   0.986  0.00  0.00    +0.136 C 
ATOM     20  C   UNL     1       4.983  -2.220  -0.822  0.00  0.00    +0.179 C 
ATOM     21  C   UNL     1       5.424  -0.399   0.609  0.00  0.00    +0.179 C 
ENDBRANCH  10  17
BRANCH  11  16
ATOM     16  C   UNL     1      -2.055   1.032  -1.244  0.00  0.00    +0.164 C 
BRANCH  16   6
ATOM      6  N   UNL     1      -3.134   0.184  -0.764  0.00  0.00    -0.250 N 
ATOM      7  N   UNL     1      -4.355   0.694  -0.576  0.00  0.00    -0.065 NA
ATOM      8  N   UNL     1      -5.122  -0.298  -0.136  0.00  0.00    -0.132 NA
ATOM     22  C   UNL     1      -3.068  -1.132  -0.458  0.00  0.00    +0.136 A 
ATOM     23  C   UNL     1      -4.349  -1.423  -0.058  0.00  0.00    +0.108 A 
BRANCH  23  24
ATOM     24  C   UNL     1      -4.907  -2.702   0.399  0.00  0.00    +0.214 C 
BRANCH  24   3
ATOM      3  O   UNL     1      -4.798  -2.879   1.818  0.00  0.00    -0.389 OA
ATOM     25  H   UNL     1      -5.311  -2.167   2.238  0.00  0.00    +0.210 HD
ENDBRANCH  24   3
ENDBRANCH  23  24
ENDBRANCH  16   6
ENDBRANCH  11  16
TORSDOF 5
