REMARK  Name = 56775959
REMARK  4 active torsions:
REMARK  status: ('A' for Active; 'I' for Inactive)
REMARK    1  A    between atoms: O_5  and  C_21
REMARK    2  A    between atoms: O_5  and  C_22
REMARK    3  A    between atoms: C_9  and  C_11
REMARK    4  A    between atoms: C_14  and  C_16
REMARK                            x       y       z     vdW  Elec       q    Type
REMARK                         _______ _______ _______ _____ _____    ______ ____
ROOT
ATOM      7  N   UNL     1      -1.597  -0.297   0.238  0.00  0.00    -0.341 N 
ATOM      8  N   UNL     1      -2.550   1.489  -0.674  0.00  0.00    -0.238 NA
ATOM     11  C   UNL     1      -2.765   0.320  -0.114  0.00  0.00    +0.127 A 
ATOM     14  C   UNL     1      -0.572   0.531  -0.120  0.00  0.00    +0.066 A 
ATOM     15  C   UNL     1      -1.184   1.627  -0.681  0.00  0.00    +0.139 A 
ATOM     24  H   UNL     1      -1.516  -1.198   0.692  0.00  0.00    +0.167 HD
ENDROOT
BRANCH  11   9
ATOM      4  O   UNL     1      -6.127  -1.209  -0.898  0.00  0.00    -0.377 OA
ATOM      6  N   UNL     1      -4.931   0.474   1.066  0.00  0.00    -0.303 NA
ATOM      9  C   UNL     1      -4.110  -0.330   0.144  0.00  0.00    +0.146 C 
ATOM     10  C   UNL     1      -4.876  -0.572  -1.165  0.00  0.00    +0.186 C 
ATOM     12  C   UNL     1      -6.234  -0.159   1.281  0.00  0.00    +0.109 C 
ATOM     13  C   UNL     1      -6.938  -0.396  -0.049  0.00  0.00    +0.175 C 
ATOM     23  H   UNL     1      -5.082   1.396   0.654  0.00  0.00    +0.123 HD
ENDBRANCH  11   9
BRANCH  14  16
ATOM     16  C   UNL     1       0.816   0.215   0.097  0.00  0.00    +0.000 A 
ATOM     17  C   UNL     1       1.739   1.238   0.313  0.00  0.00    +0.013 A 
ATOM     18  C   UNL     1       1.237  -1.115   0.091  0.00  0.00    +0.013 A 
ATOM     19  C   UNL     1       3.083   0.931   0.524  0.00  0.00    +0.046 A 
ATOM     20  C   UNL     1       2.581  -1.421   0.302  0.00  0.00    +0.046 A 
ATOM     21  C   UNL     1       3.504  -0.398   0.519  0.00  0.00    +0.130 A 
BRANCH  21   5
ATOM      5  O   UNL     1       4.815  -0.698   0.727  0.00  0.00    -0.406 OA
BRANCH   5  22
ATOM      1  F   UNL     1       6.809  -1.045  -0.273  0.00  0.00    -0.133 F 
ATOM      2  F   UNL     1       5.252  -0.018  -1.412  0.00  0.00    -0.133 F 
ATOM      3  F   UNL     1       6.270   1.004   0.262  0.00  0.00    -0.133 F 
ATOM     22  C   UNL     1       5.779  -0.173  -0.179  0.00  0.00    +0.575 C 
ENDBRANCH   5  22
ENDBRANCH  21   5
ENDBRANCH  14  16
TORSDOF 4
