REMARK  Name = 11913105
REMARK  6 active torsions:
REMARK  status: ('A' for Active; 'I' for Inactive)
REMARK    1  A    between atoms: O_3  and  C_14
REMARK    2  A    between atoms: O_3  and  C_18
REMARK    3  A    between atoms: N_7  and  C_13
REMARK    4  A    between atoms: N_10  and  C_21
REMARK    5  A    between atoms: C_19  and  C_23
REMARK    6  A    between atoms: C_21  and  C_24
REMARK                            x       y       z     vdW  Elec       q    Type
REMARK                         _______ _______ _______ _____ _____    ______ ____
ROOT
ATOM      1  O   UNL     1      -1.875   0.336   1.695  0.00  0.00    -0.368 OA
ATOM      2  O   UNL     1       0.302  -1.730   1.057  0.00  0.00    -0.368 OA
ATOM     11  C   UNL     1       0.059  -0.405   0.539  0.00  0.00    +0.173 C 
ATOM     12  C   UNL     1      -1.445  -0.238   0.449  0.00  0.00    +0.192 C 
ATOM     13  C   UNL     1       0.482   0.632   1.554  0.00  0.00    +0.130 C 
ATOM     14  C   UNL     1      -1.924  -1.661   0.294  0.00  0.00    +0.235 C 
ATOM     15  C   UNL     1      -0.724   0.695   2.475  0.00  0.00    +0.185 C 
ATOM     16  C   UNL     1      -0.951  -2.421   1.167  0.00  0.00    +0.207 C 
ENDROOT
BRANCH  13   7
ATOM      7  N   UNL     1       0.688   1.911   0.909  0.00  0.00    -0.306 N 
ATOM      8  N   UNL     1       2.874   1.376   0.335  0.00  0.00    -0.214 NA
ATOM      9  N   UNL     1       1.910   3.504  -0.257  0.00  0.00    -0.223 NA
ATOM     17  C   UNL     1       1.876   2.280   0.302  0.00  0.00    +0.216 A 
ATOM     19  C   UNL     1       4.017   1.769  -0.265  0.00  0.00    +0.076 A 
ATOM     20  C   UNL     1       3.083   3.832  -0.839  0.00  0.00    +0.116 A 
ATOM     22  C   UNL     1       4.181   2.996  -0.874  0.00  0.00    +0.048 A 
ATOM     36  H   UNL     1      -0.084   2.565   0.842  0.00  0.00    +0.149 HD
BRANCH  19  23
ATOM      5  O   UNL     1       5.970  -2.602  -1.278  0.00  0.00    -0.453 OA
ATOM      6  O   UNL     1       8.054  -2.035  -0.209  0.00  0.00    -0.453 OA
ATOM     23  C   UNL     1       5.088   0.803  -0.233  0.00  0.00    +0.004 A 
ATOM     25  C   UNL     1       4.909  -0.452  -0.821  0.00  0.00    +0.059 A 
ATOM     26  C   UNL     1       6.305   1.133   0.391  0.00  0.00    +0.014 A 
ATOM     27  C   UNL     1       5.962  -1.342  -0.765  0.00  0.00    +0.167 A 
ATOM     28  C   UNL     1       7.152  -1.018  -0.155  0.00  0.00    +0.166 A 
ATOM     29  C   UNL     1       7.355   0.213   0.433  0.00  0.00    +0.050 A 
ATOM     32  C   UNL     1       7.299  -3.036  -0.923  0.00  0.00    +0.466 C 
ENDBRANCH  19  23
ENDBRANCH  13   7
BRANCH  14   3
ATOM      3  O   UNL     1      -3.261  -1.853   0.699  0.00  0.00    -0.442 OA
BRANCH   3  18
ATOM      4  O   UNL     1      -3.975  -1.509  -1.457  0.00  0.00    -0.226 OA
ATOM     10  N   UNL     1      -5.478  -1.960   0.252  0.00  0.00    -0.277 N 
ATOM     18  C   UNL     1      -4.223  -1.751  -0.280  0.00  0.00    +0.401 C 
ATOM     37  H   UNL     1      -5.550  -2.139   1.249  0.00  0.00    +0.152 HD
BRANCH  10  21
ATOM     21  C   UNL     1      -6.695  -1.919  -0.524  0.00  0.00    +0.142 C 
BRANCH  21  24
ATOM     24  C   UNL     1      -7.287  -0.540  -0.570  0.00  0.00    -0.030 A 
ATOM     30  C   UNL     1      -8.203  -0.141   0.403  0.00  0.00    +0.005 A 
ATOM     31  C   UNL     1      -6.919   0.344  -1.585  0.00  0.00    +0.005 A 
ATOM     33  C   UNL     1      -8.752   1.141   0.361  0.00  0.00    +0.000 A 
ATOM     34  C   UNL     1      -7.468   1.625  -1.627  0.00  0.00    +0.000 A 
ATOM     35  C   UNL     1      -8.385   2.024  -0.654  0.00  0.00    +0.000 A 
ENDBRANCH  21  24
ENDBRANCH  10  21
ENDBRANCH   3  18
ENDBRANCH  14   3
TORSDOF 6
