REMARK  Name = 75536292
REMARK  10 active torsions:
REMARK  status: ('A' for Active; 'I' for Inactive)
REMARK    1  A    between atoms: O_3  and  C_9
REMARK    2  A    between atoms: O_5  and  C_20
REMARK    3  A    between atoms: O_5  and  C_26
REMARK    4  A    between atoms: N_6  and  C_13
REMARK    5  A    between atoms: N_6  and  C_16
REMARK    6  A    between atoms: C_8  and  C_13
REMARK    7  A    between atoms: C_10  and  C_14
REMARK    8  A    between atoms: C_14  and  C_15
REMARK    9  A    between atoms: C_16  and  C_18
REMARK   10  A    between atoms: C_19  and  C_20
REMARK                            x       y       z     vdW  Elec       q    Type
REMARK                         _______ _______ _______ _____ _____    ______ ____
ROOT
ATOM      2  O   UNL     1       2.737   0.131   0.765  0.00  0.00    -0.369 OA
ATOM      8  C   UNL     1       3.052   1.448   0.296  0.00  0.00    +0.161 C 
ATOM      9  C   UNL     1       4.473   1.511  -0.278  0.00  0.00    +0.145 C 
ATOM     10  C   UNL     1       2.892  -0.912  -0.200  0.00  0.00    +0.125 C 
ATOM     11  C   UNL     1       4.745   0.394  -1.281  0.00  0.00    +0.036 C 
ATOM     12  C   UNL     1       4.330  -0.961  -0.715  0.00  0.00    +0.034 C 
ENDROOT
BRANCH   9   3
ATOM      3  O   UNL     1       5.410   1.373   0.794  0.00  0.00    -0.389 OA
ATOM     28  H   UNL     1       6.302   1.463   0.418  0.00  0.00    +0.210 HD
ENDBRANCH   9   3
BRANCH   8  13
ATOM     13  C   UNL     1       1.991   1.953  -0.679  0.00  0.00    +0.115 C 
BRANCH  13   6
ATOM      6  N   UNL     1       0.666   1.896  -0.081  0.00  0.00    -0.309 NA
ATOM     27  H   UNL     1       0.458   0.932   0.181  0.00  0.00    +0.122 HD
BRANCH   6  16
ATOM     16  C   UNL     1      -0.347   2.387  -1.006  0.00  0.00    +0.116 C 
BRANCH  16  18
ATOM      1  F   UNL     1      -4.336  -0.064   0.372  0.00  0.00    -0.205 F 
ATOM     18  C   UNL     1      -1.725   2.349  -0.401  0.00  0.00    -0.031 A 
ATOM     21  C   UNL     1      -2.405   1.136  -0.292  0.00  0.00    +0.043 A 
ATOM     22  C   UNL     1      -2.321   3.526   0.051  0.00  0.00    +0.005 A 
ATOM     23  C   UNL     1      -3.682   1.100   0.269  0.00  0.00    +0.124 A 
ATOM     24  C   UNL     1      -3.598   3.490   0.612  0.00  0.00    +0.003 A 
ATOM     25  C   UNL     1      -4.279   2.277   0.721  0.00  0.00    +0.038 A 
ENDBRANCH  16  18
ENDBRANCH   6  16
ENDBRANCH  13   6
ENDBRANCH   8  13
BRANCH  10  14
ATOM     14  C   UNL     1       2.512  -2.224   0.476  0.00  0.00    +0.090 C 
BRANCH  14  15
ATOM      4  O   UNL     1      -0.965  -2.239   1.425  0.00  0.00    -0.357 OA
ATOM      7  N   UNL     1       0.371  -1.932   1.653  0.00  0.00    -0.083 NA
ATOM     15  C   UNL     1       1.019  -2.388   0.577  0.00  0.00    +0.086 A 
ATOM     17  C   UNL     1       0.153  -2.986  -0.354  0.00  0.00    +0.073 A 
ATOM     19  C   UNL     1      -1.082  -2.866   0.227  0.00  0.00    +0.163 A 
BRANCH  19  20
ATOM     20  C   UNL     1      -2.437  -3.264  -0.174  0.00  0.00    +0.236 C 
BRANCH  20   5
ATOM      5  O   UNL     1      -2.933  -2.384  -1.187  0.00  0.00    -0.375 OA
ATOM     26  C   UNL     1      -4.242  -2.752  -1.589  0.00  0.00    +0.194 C 
ENDBRANCH  20   5
ENDBRANCH  19  20
ENDBRANCH  14  15
ENDBRANCH  10  14
TORSDOF 9
