REMARK  Name = 11865998
REMARK  4 active torsions:
REMARK  status: ('A' for Active; 'I' for Inactive)
REMARK    1  A    between atoms: O_2  and  C_10
REMARK    2  A    between atoms: O_5  and  C_21
REMARK    3  A    between atoms: O_5  and  C_26
REMARK    4  A    between atoms: C_18  and  C_20
REMARK                            x       y       z     vdW  Elec       q    Type
REMARK                         _______ _______ _______ _____ _____    ______ ____
ROOT
ATOM      3  O   UNL     1      -4.519   2.138   0.111  0.00  0.00    -0.273 OA
ATOM      4  O   UNL     1      -1.285  -1.769   1.569  0.00  0.00    -0.270 OA
ATOM      6  N   UNL     1      -2.950  -0.759   0.347  0.00  0.00    -0.283 N 
ATOM      7  N   UNL     1      -2.247   2.100   0.286  0.00  0.00    -0.283 N 
ATOM      8  C   UNL     1      -3.402   0.156  -0.681  0.00  0.00    +0.165 C 
ATOM      9  C   UNL     1      -4.761  -0.395  -1.109  0.00  0.00    +0.065 C 
ATOM     10  C   UNL     1      -5.274  -1.100   0.145  0.00  0.00    +0.134 C 
ATOM     11  C   UNL     1      -4.005  -1.678   0.750  0.00  0.00    +0.140 C 
ATOM     12  C   UNL     1      -3.460   1.524  -0.032  0.00  0.00    +0.238 C 
ATOM     13  C   UNL     1      -1.658  -0.875   0.809  0.00  0.00    +0.249 C 
ATOM     14  C   UNL     1      -0.670   0.152   0.387  0.00  0.00    +0.059 A 
ATOM     15  C   UNL     1      -0.960   1.520   0.244  0.00  0.00    +0.046 A 
ATOM     16  C   UNL     1       0.665  -0.285   0.298  0.00  0.00    +0.023 A 
ATOM     17  C   UNL     1       0.104   2.424   0.082  0.00  0.00    +0.024 A 
ATOM     18  C   UNL     1       1.702   0.623   0.090  0.00  0.00    -0.014 A 
ATOM     19  C   UNL     1       1.423   1.980  -0.006  0.00  0.00    +0.010 A 
ATOM     27  H   UNL     1      -2.279   3.094   0.496  0.00  0.00    +0.155 HD
ENDROOT
BRANCH  18  20
ATOM      1 CL   UNL     1       6.094  -0.540   2.521  0.00  0.00    -0.084 Cl
ATOM     20  C   UNL     1       3.068   0.155  -0.005  0.00  0.00    +0.025 A 
ATOM     21  C   UNL     1       3.626  -0.185  -1.238  0.00  0.00    +0.128 A 
ATOM     22  C   UNL     1       3.833   0.045   1.158  0.00  0.00    +0.032 A 
ATOM     23  C   UNL     1       4.945  -0.634  -1.309  0.00  0.00    +0.047 A 
ATOM     24  C   UNL     1       5.152  -0.404   1.087  0.00  0.00    +0.042 A 
ATOM     25  C   UNL     1       5.708  -0.744  -0.146  0.00  0.00    +0.023 A 
BRANCH  21   5
ATOM      5  O   UNL     1       2.904  -0.088  -2.391  0.00  0.00    -0.495 OA
ATOM     26  C   UNL     1       2.162  -1.239  -2.788  0.00  0.00    +0.277 C 
ENDBRANCH  21   5
ENDBRANCH  18  20
BRANCH  10   2
ATOM      2  O   UNL     1      -6.196  -2.121  -0.177  0.00  0.00    -0.390 OA
ATOM     28  H   UNL     1      -6.415  -2.587   0.648  0.00  0.00    +0.210 HD
ENDBRANCH  10   2
TORSDOF 3
