REMARK  Name = 75536721
REMARK  10 active torsions:
REMARK  status: ('A' for Active; 'I' for Inactive)
REMARK    1  A    between atoms: O_2  and  C_8
REMARK    2  A    between atoms: N_4  and  C_7
REMARK    3  A    between atoms: N_4  and  C_12
REMARK    4  A    between atoms: N_5  and  C_11
REMARK    5  A    between atoms: N_6  and  C_16
REMARK    6  A    between atoms: C_9  and  C_11
REMARK    7  A    between atoms: C_12  and  C_13
REMARK    8  A    between atoms: C_12  and  C_14
REMARK    9  A    between atoms: C_16  and  C_17
REMARK   10  A    between atoms: C_16  and  C_18
REMARK                            x       y       z     vdW  Elec       q    Type
REMARK                         _______ _______ _______ _____ _____    ______ ____
ROOT
ATOM      1  O   UNL     1      -0.659   1.095  -0.641  0.00  0.00    -0.371 OA
ATOM      7  C   UNL     1      -2.667   0.057   0.086  0.00  0.00    +0.111 C 
ATOM      8  C   UNL     1      -1.682  -1.016  -0.338  0.00  0.00    +0.164 C 
ATOM      9  C   UNL     1      -0.365  -0.256  -0.249  0.00  0.00    +0.165 C 
ATOM     10  C   UNL     1      -2.083   1.287  -0.590  0.00  0.00    +0.181 C 
ENDROOT
BRANCH   8   2
ATOM      2  O   UNL     1      -1.700  -2.143   0.517  0.00  0.00    -0.388 OA
ATOM     20  H   UNL     1      -1.527  -1.841   1.425  0.00  0.00    +0.210 HD
ENDBRANCH   8   2
BRANCH   7   4
ATOM      4  N   UNL     1      -4.037  -0.215  -0.319  0.00  0.00    -0.307 NA
ATOM     19  H   UNL     1      -4.267  -1.193  -0.145  0.00  0.00    +0.123 HD
BRANCH   4  12
ATOM     12  C   UNL     1      -4.975   0.648   0.388  0.00  0.00    +0.048 C 
ATOM     13  C   UNL     1      -5.207   0.132   1.802  0.00  0.00    +0.023 C 
ATOM     14  C   UNL     1      -6.286   0.757  -0.382  0.00  0.00    +0.023 C 
ENDBRANCH   4  12
ENDBRANCH   7   4
BRANCH   9  11
ATOM     11  C   UNL     1       0.719  -0.827  -1.146  0.00  0.00    +0.140 C 
BRANCH  11   5
ATOM      3  O   UNL     1       2.884  -1.301   0.702  0.00  0.00    -0.253 OA
ATOM      5  N   UNL     1       1.938  -0.079  -1.032  0.00  0.00    -0.297 N 
ATOM      6  N   UNL     1       4.013   0.508  -0.211  0.00  0.00    -0.297 N 
ATOM     15  C   UNL     1       2.942  -0.375  -0.105  0.00  0.00    +0.300 C 
ATOM     21  H   UNL     1       2.071   0.717  -1.649  0.00  0.00    +0.150 HD
ATOM     22  H   UNL     1       4.001   1.194  -0.961  0.00  0.00    +0.150 HD
BRANCH   6  16
ATOM     16  C   UNL     1       5.183   0.424   0.631  0.00  0.00    +0.068 C 
ATOM     17  C   UNL     1       5.763   1.812   0.872  0.00  0.00    +0.027 C 
ATOM     18  C   UNL     1       6.219  -0.508   0.015  0.00  0.00    +0.027 C 
ENDBRANCH   6  16
ENDBRANCH  11   5
ENDBRANCH   9  11
TORSDOF 6
