REMARK  Name = 56774005
REMARK  11 active torsions:
REMARK  status: ('A' for Active; 'I' for Inactive)
REMARK    1  A    between atoms: O_3  and  C_22
REMARK    2  A    between atoms: N_4  and  C_9
REMARK    3  A    between atoms: N_6  and  C_18
REMARK    4  A    between atoms: C_7  and  C_12
REMARK    5  A    between atoms: C_7  and  C_13
REMARK    6  A    between atoms: C_8  and  C_11
REMARK    7  A    between atoms: C_11  and  C_14
REMARK    8  A    between atoms: C_17  and  C_19
REMARK    9  A    between atoms: C_18  and  C_20
REMARK   10  A    between atoms: C_18  and  C_21
REMARK   11  A    between atoms: C_19  and  C_22
REMARK                            x       y       z     vdW  Elec       q    Type
REMARK                         _______ _______ _______ _____ _____    ______ ____
ROOT
ATOM      7  C   UNL     1      -0.904   1.512   0.249  0.00  0.00    -0.013 C 
ATOM      8  C   UNL     1       0.596   1.195   0.417  0.00  0.00    +0.004 C 
ATOM      9  C   UNL     1      -1.188   0.139   0.893  0.00  0.00    +0.081 C 
ATOM     10  C   UNL     1       0.205  -0.297   0.394  0.00  0.00    +0.027 C 
ATOM     12  C   UNL     1      -1.358   2.724   1.033  0.00  0.00    +0.013 C 
ATOM     13  C   UNL     1      -1.403   1.603  -1.181  0.00  0.00    +0.013 C 
ENDROOT
BRANCH   9   4
ATOM      2  O   UNL     1      -4.013   0.687   1.133  0.00  0.00    -0.253 OA
ATOM      4  N   UNL     1      -2.295  -0.628   0.299  0.00  0.00    -0.296 N 
ATOM      6  N   UNL     1      -4.480  -1.164  -0.189  0.00  0.00    -0.297 N 
ATOM     15  C   UNL     1      -3.634  -0.280   0.474  0.00  0.00    +0.300 C 
ATOM     23  H   UNL     1      -2.100  -1.454  -0.261  0.00  0.00    +0.151 HD
ATOM     24  H   UNL     1      -4.066  -1.887  -0.770  0.00  0.00    +0.150 HD
BRANCH   6  18
ATOM     18  C   UNL     1      -5.918  -1.030  -0.169  0.00  0.00    +0.068 C 
ATOM     20  C   UNL     1      -6.578  -2.400  -0.246  0.00  0.00    +0.027 C 
ATOM     21  C   UNL     1      -6.386  -0.126  -1.302  0.00  0.00    +0.027 C 
ENDBRANCH   6  18
ENDBRANCH   9   4
BRANCH   8  11
ATOM     11  C   UNL     1       1.524   1.626  -0.695  0.00  0.00    +0.063 C 
BRANCH  11  14
ATOM      1  O   UNL     1       4.928   0.784   0.157  0.00  0.00    -0.359 OA
ATOM      5  N   UNL     1       3.822   1.626   0.194  0.00  0.00    -0.083 NA
ATOM     14  C   UNL     1       2.884   0.995  -0.518  0.00  0.00    +0.084 A 
ATOM     16  C   UNL     1       3.336  -0.236  -1.024  0.00  0.00    +0.071 A 
ATOM     17  C   UNL     1       4.625  -0.321  -0.571  0.00  0.00    +0.140 A 
BRANCH  17  19
ATOM     19  C   UNL     1       5.689  -1.323  -0.713  0.00  0.00    +0.105 C 
BRANCH  19  22
ATOM     22  C   UNL     1       5.883  -2.204   0.537  0.00  0.00    +0.163 C 
BRANCH  22   3
ATOM      3  O   UNL     1       4.666  -2.881   0.828  0.00  0.00    -0.395 OA
ATOM     25  H   UNL     1       4.826  -3.426   1.617  0.00  0.00    +0.209 HD
ENDBRANCH  22   3
ENDBRANCH  19  22
ENDBRANCH  17  19
ENDBRANCH  11  14
ENDBRANCH   8  11
TORSDOF 7
