REMARK  Name = 40777724
REMARK  9 active torsions:
REMARK  status: ('A' for Active; 'I' for Inactive)
REMARK    1  A    between atoms: O_2  and  C_27
REMARK    2  A    between atoms: O_2  and  C_29
REMARK    3  A    between atoms: N_3  and  C_8
REMARK    4  A    between atoms: N_3  and  C_14
REMARK    5  A    between atoms: N_4  and  C_17
REMARK    6  A    between atoms: C_6  and  C_9
REMARK    7  A    between atoms: C_12  and  C_15
REMARK    8  A    between atoms: C_13  and  C_16
REMARK    9  A    between atoms: C_14  and  C_18
REMARK                            x       y       z     vdW  Elec       q    Type
REMARK                         _______ _______ _______ _____ _____    ______ ____
ROOT
ATOM      6  C   UNL     1       0.317   0.862   0.215  0.00  0.00    +0.047 C 
ATOM      7  C   UNL     1      -0.289  -0.389  -0.450  0.00  0.00    +0.035 C 
ATOM      8  C   UNL     1      -1.381  -0.897   0.507  0.00  0.00    +0.078 C 
ATOM     10  C   UNL     1      -0.035   0.655   1.660  0.00  0.00    -0.021 C 
ATOM     11  C   UNL     1      -0.963  -0.296   1.813  0.00  0.00    -0.012 C 
ENDROOT
BRANCH   6   9
ATOM      4  N   UNL     1       3.956   0.741  -0.191  0.00  0.00    -0.236 N 
ATOM      5  N   UNL     1       3.763   1.936  -0.775  0.00  0.00    -0.171 NA
ATOM      9  C   UNL     1       1.794   1.027  -0.058  0.00  0.00    +0.003 A 
ATOM     12  C   UNL     1       2.808   0.155   0.256  0.00  0.00    +0.046 A 
ATOM     13  C   UNL     1       2.441   2.105  -0.692  0.00  0.00    +0.064 A 
ATOM     15  C   UNL     1       2.778  -1.160   0.929  0.00  0.00    +0.066 C 
ATOM     16  C   UNL     1       1.831   3.329  -1.239  0.00  0.00    +0.068 C 
BRANCH   4  17
ATOM      1 BR   UNL     1       7.257  -3.186  -1.387  0.00  0.00    -0.050 Br
ATOM     17  C   UNL     1       5.246   0.220  -0.090  0.00  0.00    +0.067 A 
ATOM     19  C   UNL     1       5.552  -1.004  -0.686  0.00  0.00    +0.043 A 
ATOM     20  C   UNL     1       6.229   0.921   0.608  0.00  0.00    +0.028 A 
ATOM     25  C   UNL     1       6.842  -1.526  -0.584  0.00  0.00    +0.020 A 
ATOM     26  C   UNL     1       7.519   0.399   0.710  0.00  0.00    +0.003 A 
ATOM     28  C   UNL     1       7.825  -0.824   0.114  0.00  0.00    +0.015 A 
ENDBRANCH   4  17
ENDBRANCH   6   9
BRANCH   8   3
ATOM      3  N   UNL     1      -2.709  -0.444   0.112  0.00  0.00    -0.306 NA
ATOM     30  H   UNL     1      -2.831  -0.591  -0.890  0.00  0.00    +0.123 HD
BRANCH   3  14
ATOM     14  C   UNL     1      -3.746  -1.178   0.827  0.00  0.00    +0.116 C 
BRANCH  14  18
ATOM     18  C   UNL     1      -5.126  -0.716   0.443  0.00  0.00    -0.033 A 
ATOM     21  C   UNL     1      -5.625   0.486   0.945  0.00  0.00    +0.008 A 
ATOM     22  C   UNL     1      -5.907  -1.489  -0.416  0.00  0.00    +0.008 A 
ATOM     23  C   UNL     1      -6.903   0.915   0.589  0.00  0.00    +0.046 A 
ATOM     24  C   UNL     1      -7.186  -1.061  -0.773  0.00  0.00    +0.046 A 
ATOM     27  C   UNL     1      -7.684   0.141  -0.270  0.00  0.00    +0.120 A 
BRANCH  27   2
ATOM      2  O   UNL     1      -8.931   0.559  -0.618  0.00  0.00    -0.495 OA
ATOM     29  C   UNL     1      -9.675  -0.281  -1.500  0.00  0.00    +0.277 C 
ENDBRANCH  27   2
ENDBRANCH  14  18
ENDBRANCH   3  14
ENDBRANCH   8   3
TORSDOF 6
