REMARK  Name = 7114646
REMARK  14 active torsions:
REMARK  status: ('A' for Active; 'I' for Inactive)
REMARK    1  A    between atoms: O_1  and  C_12
REMARK    2  A    between atoms: O_2  and  C_16
REMARK    3  A    between atoms: O_3  and  C_17
REMARK    4  A    between atoms: N_8  and  C_13
REMARK    5  A    between atoms: N_9  and  C_19
REMARK    6  A    between atoms: N_10  and  C_26
REMARK    7  A    between atoms: C_12  and  C_18
REMARK    8  A    between atoms: C_19  and  C_20
REMARK    9  A    between atoms: C_19  and  C_23
REMARK   10  A    between atoms: C_20  and  C_22
REMARK   11  A    between atoms: C_22  and  C_24
REMARK   12  A    between atoms: C_22  and  C_25
REMARK   13  A    between atoms: C_31  and  C_32
REMARK   14  A    between atoms: C_32  and  C_33
REMARK                            x       y       z     vdW  Elec       q    Type
REMARK                         _______ _______ _______ _____ _____    ______ ____
ROOT
ATOM     12  C   UNL     1       2.486   0.179   0.119  0.00  0.00    +0.146 C 
ATOM     13  C   UNL     1      -0.026   0.564   0.118  0.00  0.00    +0.109 C 
ATOM     14  C   UNL     1       1.145  -0.197  -0.514  0.00  0.00    +0.069 C 
ATOM     15  C   UNL     1       2.713   1.689   0.082  0.00  0.00    +0.078 C 
ATOM     16  C   UNL     1       0.206   2.081   0.105  0.00  0.00    +0.163 C 
ATOM     17  C   UNL     1       1.556   2.461   0.718  0.00  0.00    +0.148 C 
ENDROOT
BRANCH  13   8
ATOM      5  O   UNL     1      -2.649   0.437   1.261  0.00  0.00    -0.252 OA
ATOM      8  N   UNL     1      -1.254   0.231  -0.570  0.00  0.00    -0.294 N 
ATOM     10  N   UNL     1      -3.496  -0.158  -0.846  0.00  0.00    -0.269 N 
ATOM     21  C   UNL     1      -2.497   0.192   0.067  0.00  0.00    +0.304 C 
ATOM     34  H   UNL     1      -1.223   0.093  -1.576  0.00  0.00    +0.151 HD
ATOM     39  H   UNL     1      -3.199  -0.331  -1.803  0.00  0.00    +0.156 HD
BRANCH  10  26
ATOM     26  C   UNL     1      -4.881  -0.306  -0.601  0.00  0.00    +0.035 A 
ATOM     27  C   UNL     1      -5.372  -0.090   0.676  0.00  0.00    +0.024 A 
ATOM     28  C   UNL     1      -5.719  -0.663  -1.645  0.00  0.00    +0.024 A 
ATOM     29  C   UNL     1      -6.739  -0.236   0.916  0.00  0.00    +0.013 A 
ATOM     30  C   UNL     1      -7.085  -0.809  -1.405  0.00  0.00    +0.013 A 
ATOM     31  C   UNL     1      -7.595  -0.595  -0.124  0.00  0.00    +0.017 A 
BRANCH  31  32
ATOM      7  O   UNL     1      -9.810  -1.066  -0.785  0.00  0.00    -0.292 OA
ATOM     32  C   UNL     1      -9.020  -0.747   0.126  0.00  0.00    +0.160 C 
ATOM     33  C   UNL     1      -9.584  -0.514   1.523  0.00  0.00    +0.091 C 
ENDBRANCH  31  32
ENDBRANCH  10  26
ENDBRANCH  13   8
BRANCH  12  18
ATOM      4  O   UNL     1       3.417  -1.311  -1.500  0.00  0.00    -0.273 OA
ATOM      9  N   UNL     1       4.845  -0.214  -0.025  0.00  0.00    -0.302 N 
ATOM     18  C   UNL     1       3.614  -0.531  -0.572  0.00  0.00    +0.245 C 
ATOM     37  H   UNL     1       4.916   0.538   0.649  0.00  0.00    +0.150 HD
BRANCH   9  19
ATOM     19  C   UNL     1       6.088  -0.782  -0.494  0.00  0.00    +0.159 C 
BRANCH  19  23
ATOM      6  O   UNL     1       6.400   1.303  -1.706  0.00  0.00    -0.274 OA
ATOM     11  N   UNL     1       7.253  -0.629  -2.608  0.00  0.00    -0.328 N 
ATOM     23  C   UNL     1       6.566   0.087  -1.651  0.00  0.00    +0.231 C 
ATOM     40  H   UNL     1       7.403  -1.631  -2.538  0.00  0.00    +0.145 HD
ATOM     41  H   UNL     1       7.638  -0.169  -3.426  0.00  0.00    +0.145 HD
ENDBRANCH  19  23
BRANCH  19  20
ATOM     20  C   UNL     1       7.156  -0.836   0.606  0.00  0.00    +0.034 C 
BRANCH  20  22
ATOM     22  C   UNL     1       6.750  -1.633   1.862  0.00  0.00    -0.015 C 
ATOM     24  C   UNL     1       5.465  -1.102   2.499  0.00  0.00    +0.007 C 
ATOM     25  C   UNL     1       6.573  -3.111   1.502  0.00  0.00    +0.007 C 
ENDBRANCH  20  22
ENDBRANCH  19  20
ENDBRANCH   9  19
ENDBRANCH  12  18
BRANCH  12   1
ATOM      1  O   UNL     1       2.542  -0.267   1.469  0.00  0.00    -0.379 OA
ATOM     35  H   UNL     1       3.209   0.256   1.944  0.00  0.00    +0.211 HD
ENDBRANCH  12   1
BRANCH  16   2
ATOM      2  O   UNL     1      -0.815   2.716   0.881  0.00  0.00    -0.387 OA
ATOM     36  H   UNL     1      -0.756   3.672   0.720  0.00  0.00    +0.210 HD
ENDBRANCH  16   2
BRANCH  17   3
ATOM      3  O   UNL     1       1.767   3.858   0.515  0.00  0.00    -0.389 OA
ATOM     38  H   UNL     1       1.120   4.337   1.060  0.00  0.00    +0.210 HD
ENDBRANCH  17   3
TORSDOF 11
