REMARK  Name = 11941475
REMARK  7 active torsions:
REMARK  status: ('A' for Active; 'I' for Inactive)
REMARK    1  A    between atoms: O_5  and  C_27
REMARK    2  A    between atoms: O_5  and  C_32
REMARK    3  A    between atoms: N_7  and  C_10
REMARK    4  A    between atoms: N_9  and  C_23
REMARK    5  A    between atoms: C_21  and  C_24
REMARK    6  A    between atoms: C_23  and  C_25
REMARK    7  A    between atoms: C_23  and  C_26
REMARK                            x       y       z     vdW  Elec       q    Type
REMARK                         _______ _______ _______ _____ _____    ______ ____
ROOT
ATOM      2  O   UNL     1      -2.528  -3.243   1.570  0.00  0.00    -0.273 OA
ATOM      3  O   UNL     1       0.336  -1.276  -2.391  0.00  0.00    -0.270 OA
ATOM      6  N   UNL     1      -1.468  -1.436  -0.974  0.00  0.00    -0.284 N 
ATOM      8  N   UNL     1      -0.381  -2.483   1.552  0.00  0.00    -0.283 N 
ATOM     10  C   UNL     1      -3.603  -1.159   0.006  0.00  0.00    +0.105 C 
ATOM     11  C   UNL     1      -2.101  -1.228   0.316  0.00  0.00    +0.183 C 
ATOM     12  C   UNL     1      -3.741  -1.984  -1.275  0.00  0.00    +0.043 C 
ATOM     13  C   UNL     1      -2.446  -1.696  -2.020  0.00  0.00    +0.111 C 
ATOM     14  C   UNL     1      -1.703  -2.423   1.163  0.00  0.00    +0.240 C 
ATOM     15  C   UNL     1      -0.131  -1.249  -1.253  0.00  0.00    +0.249 C 
ATOM     16  C   UNL     1       0.797  -1.026  -0.114  0.00  0.00    +0.059 A 
ATOM     17  C   UNL     1       0.698  -1.678   1.127  0.00  0.00    +0.046 A 
ATOM     19  C   UNL     1       1.927  -0.234  -0.391  0.00  0.00    +0.023 A 
ATOM     20  C   UNL     1       1.767  -1.573   2.035  0.00  0.00    +0.024 A 
ATOM     21  C   UNL     1       2.955  -0.104   0.541  0.00  0.00    -0.014 A 
ATOM     22  C   UNL     1       2.881  -0.784   1.750  0.00  0.00    +0.010 A 
ATOM     34  H   UNL     1      -0.177  -3.139   2.302  0.00  0.00    +0.155 HD
ENDROOT
BRANCH  21  24
ATOM      1 CL   UNL     1       5.185   4.535   0.777  0.00  0.00    -0.084 Cl
ATOM     24  C   UNL     1       4.107   0.718   0.241  0.00  0.00    +0.025 A 
ATOM     27  C   UNL     1       5.222   0.182  -0.406  0.00  0.00    +0.128 A 
ATOM     28  C   UNL     1       4.097   2.066   0.606  0.00  0.00    +0.032 A 
ATOM     29  C   UNL     1       6.323   0.990  -0.687  0.00  0.00    +0.047 A 
ATOM     30  C   UNL     1       5.198   2.874   0.325  0.00  0.00    +0.042 A 
ATOM     31  C   UNL     1       6.311   2.337  -0.321  0.00  0.00    +0.023 A 
BRANCH  27   5
ATOM      5  O   UNL     1       5.261  -1.131  -0.774  0.00  0.00    -0.495 OA
ATOM     32  C   UNL     1       6.443  -1.584  -1.429  0.00  0.00    +0.277 C 
ENDBRANCH  27   5
ENDBRANCH  21  24
BRANCH  10   7
ATOM      4  O   UNL     1      -6.244  -0.072   0.416  0.00  0.00    -0.253 OA
ATOM      7  N   UNL     1      -4.025   0.207  -0.204  0.00  0.00    -0.294 N 
ATOM      9  N   UNL     1      -5.458   2.003  -0.260  0.00  0.00    -0.297 N 
ATOM     18  C   UNL     1      -5.327   0.645   0.020  0.00  0.00    +0.300 C 
ATOM     33  H   UNL     1      -3.359   0.864  -0.601  0.00  0.00    +0.151 HD
ATOM     35  H   UNL     1      -4.624   2.527  -0.507  0.00  0.00    +0.150 HD
BRANCH   9  23
ATOM     23  C   UNL     1      -6.705   2.716  -0.113  0.00  0.00    +0.068 C 
ATOM     25  C   UNL     1      -6.799   3.836  -1.141  0.00  0.00    +0.027 C 
ATOM     26  C   UNL     1      -6.849   3.254   1.305  0.00  0.00    +0.027 C 
ENDBRANCH   9  23
ENDBRANCH  10   7
TORSDOF 4
