REMARK  Name = 11941977
REMARK  7 active torsions:
REMARK  status: ('A' for Active; 'I' for Inactive)
REMARK    1  A    between atoms: N_5  and  C_15
REMARK    2  A    between atoms: C_9  and  C_16
REMARK    3  A    between atoms: C_10  and  C_15
REMARK    4  A    between atoms: C_22  and  C_23
REMARK    5  A    between atoms: C_23  and  C_24
REMARK    6  A    between atoms: C_24  and  C_25
REMARK    7  A    between atoms: C_25  and  C_26
REMARK                            x       y       z     vdW  Elec       q    Type
REMARK                         _______ _______ _______ _____ _____    ______ ____
ROOT
ATOM      3  N   UNL     1       0.547   2.615  -0.713  0.00  0.00    -0.297 NA
ATOM      8  C   UNL     1       1.391   1.019   1.161  0.00  0.00    +0.005 C 
ATOM      9  C   UNL     1       2.386   1.075  -0.014  0.00  0.00    +0.092 C 
ATOM     10  C   UNL     1      -0.514   1.632  -0.368  0.00  0.00    +0.078 C 
ATOM     11  C   UNL     1       0.012   0.578   0.631  0.00  0.00    +0.025 C 
ATOM     12  C   UNL     1       1.242   2.459   1.685  0.00  0.00    +0.020 C 
ATOM     13  C   UNL     1       1.778   1.911  -1.153  0.00  0.00    +0.097 C 
ATOM     14  C   UNL     1       0.870   3.386   0.513  0.00  0.00    +0.085 C 
ENDROOT
BRANCH   9  16
ATOM      1  O   UNL     1       2.112  -0.845  -1.377  0.00  0.00    -0.275 OA
ATOM      2  O   UNL     1       6.420  -1.840   0.839  0.00  0.00    -0.377 OA
ATOM      4  N   UNL     1       3.850  -0.904   0.161  0.00  0.00    -0.297 N 
ATOM     16  C   UNL     1       2.763  -0.310  -0.476  0.00  0.00    +0.220 C 
ATOM     17  C   UNL     1       4.564  -0.352   1.317  0.00  0.00    +0.136 C 
ATOM     18  C   UNL     1       4.285  -2.245  -0.230  0.00  0.00    +0.136 C 
ATOM     20  C   UNL     1       6.069  -0.482   1.119  0.00  0.00    +0.179 C 
ATOM     21  C   UNL     1       5.800  -2.292  -0.368  0.00  0.00    +0.179 C 
ENDBRANCH   9  16
BRANCH  10  15
ATOM     15  C   UNL     1      -1.131   0.981  -1.608  0.00  0.00    +0.164 C 
BRANCH  15   5
ATOM      5  N   UNL     1      -2.261   0.133  -1.268  0.00  0.00    -0.250 N 
ATOM      6  N   UNL     1      -2.072  -1.162  -0.997  0.00  0.00    -0.065 NA
ATOM      7  N   UNL     1      -3.268  -1.676  -0.730  0.00  0.00    -0.135 NA
ATOM     19  C   UNL     1      -3.562   0.496  -1.187  0.00  0.00    +0.133 A 
ATOM     22  C   UNL     1      -4.191  -0.674  -0.842  0.00  0.00    +0.083 A 
BRANCH  22  23
ATOM     23  C   UNL     1      -5.619  -0.923  -0.606  0.00  0.00    +0.059 C 
BRANCH  23  24
ATOM     24  C   UNL     1      -6.042  -0.714   0.864  0.00  0.00    +0.006 C 
BRANCH  24  25
ATOM     25  C   UNL     1      -7.522  -1.020   1.094  0.00  0.00    -0.003 C 
ATOM     26  C   UNL     1      -7.907  -0.847   2.554  0.00  0.00    +0.004 C 
ENDBRANCH  24  25
ENDBRANCH  23  24
ENDBRANCH  22  23
ENDBRANCH  15   5
ENDBRANCH  10  15
TORSDOF 6
