REMARK  Name = 11884093
REMARK  9 active torsions:
REMARK  status: ('A' for Active; 'I' for Inactive)
REMARK    1  A    between atoms: O_3  and  C_11
REMARK    2  A    between atoms: O_3  and  C_15
REMARK    3  A    between atoms: N_6  and  C_10
REMARK    4  A    between atoms: N_7  and  C_19
REMARK    5  A    between atoms: C_14  and  C_16
REMARK    6  A    between atoms: C_22  and  C_31
REMARK    7  A    between atoms: C_25  and  C_26
REMARK    8  A    between atoms: C_26  and  C_29
REMARK    9  A    between atoms: C_26  and  C_30
REMARK                            x       y       z     vdW  Elec       q    Type
REMARK                         _______ _______ _______ _____ _____    ______ ____
ROOT
ATOM      1  O   UNL     1      -0.625  -1.578  -0.942  0.00  0.00    -0.368 OA
ATOM      2  O   UNL     1      -1.707  -3.897   0.747  0.00  0.00    -0.368 OA
ATOM      8  C   UNL     1      -1.962  -2.478   0.797  0.00  0.00    +0.173 C 
ATOM      9  C   UNL     1      -0.652  -1.785   0.480  0.00  0.00    +0.192 C 
ATOM     10  C   UNL     1      -2.870  -2.074  -0.340  0.00  0.00    +0.130 C 
ATOM     11  C   UNL     1       0.371  -2.805   0.917  0.00  0.00    +0.235 C 
ATOM     12  C   UNL     1      -1.897  -1.942  -1.499  0.00  0.00    +0.185 C 
ATOM     13  C   UNL     1      -0.301  -4.109   0.549  0.00  0.00    +0.207 C 
ENDROOT
BRANCH  10   6
ATOM      4  O   UNL     1      -5.370  -1.172  -1.430  0.00  0.00    -0.270 OA
ATOM      6  N   UNL     1      -3.529  -0.821  -0.063  0.00  0.00    -0.304 N 
ATOM     14  C   UNL     1      -4.742  -0.471  -0.641  0.00  0.00    +0.244 C 
ATOM     32  H   UNL     1      -3.014  -0.144   0.489  0.00  0.00    +0.149 HD
BRANCH  14  16
ATOM     16  C   UNL     1      -5.277   0.865  -0.274  0.00  0.00    +0.037 A 
ATOM     17  C   UNL     1      -4.925   1.411   0.944  0.00  0.00    +0.013 A 
ATOM     18  C   UNL     1      -6.109   1.517  -1.160  0.00  0.00    +0.013 A 
ATOM     20  C   UNL     1      -5.428   2.666   1.290  0.00  0.00    +0.004 A 
ATOM     21  C   UNL     1      -6.612   2.771  -0.814  0.00  0.00    +0.004 A 
ATOM     22  C   UNL     1      -6.272   3.345   0.411  0.00  0.00    -0.050 A 
ATOM     31  C   UNL     1      -6.809   4.687   0.780  0.00  0.00    +0.044 C 
ENDBRANCH  14  16
ENDBRANCH  10   6
BRANCH  11   3
ATOM      3  O   UNL     1       1.621  -2.656   0.282  0.00  0.00    -0.442 OA
BRANCH   3  15
ATOM      5  O   UNL     1       1.865  -0.593   1.240  0.00  0.00    -0.226 OA
ATOM      7  N   UNL     1       3.501  -1.494  -0.172  0.00  0.00    -0.251 N 
ATOM     15  C   UNL     1       2.304  -1.480   0.518  0.00  0.00    +0.405 C 
ATOM     33  H   UNL     1       3.691  -2.328  -0.724  0.00  0.00    +0.158 HD
BRANCH   7  19
ATOM     19  C   UNL     1       4.497  -0.492  -0.208  0.00  0.00    +0.036 A 
ATOM     23  C   UNL     1       5.638  -0.696  -0.967  0.00  0.00    +0.024 A 
ATOM     24  C   UNL     1       4.313   0.675   0.517  0.00  0.00    +0.024 A 
ATOM     25  C   UNL     1       6.450   1.473  -0.278  0.00  0.00    -0.045 A 
ATOM     27  C   UNL     1       6.621   0.293  -1.002  0.00  0.00    +0.006 A 
ATOM     28  C   UNL     1       5.296   1.663   0.482  0.00  0.00    +0.006 A 
BRANCH  25  26
ATOM     26  C   UNL     1       7.501   2.530  -0.315  0.00  0.00    +0.013 C 
ATOM     29  C   UNL     1       6.987   3.851  -0.918  0.00  0.00    +0.012 C 
ATOM     30  C   UNL     1       8.120   2.795   1.071  0.00  0.00    +0.012 C 
ENDBRANCH  25  26
ENDBRANCH   7  19
ENDBRANCH   3  15
ENDBRANCH  11   3
TORSDOF 6
