REMARK  Name = 75536064
REMARK  8 active torsions:
REMARK  status: ('A' for Active; 'I' for Inactive)
REMARK    1  A    between atoms: O_1  and  C_10
REMARK    2  A    between atoms: O_2  and  C_12
REMARK    3  A    between atoms: N_4  and  C_9
REMARK    4  A    between atoms: N_6  and  C_21
REMARK    5  A    between atoms: C_8  and  C_13
REMARK    6  A    between atoms: C_15  and  C_17
REMARK    7  A    between atoms: C_21  and  C_23
REMARK    8  A    between atoms: C_22  and  C_24
REMARK                            x       y       z     vdW  Elec       q    Type
REMARK                         _______ _______ _______ _____ _____    ______ ____
ROOT
ATOM      8  C   UNL     1       2.056   0.475   1.001  0.00  0.00    +0.046 C 
ATOM      9  C   UNL     1       1.121   1.228   0.027  0.00  0.00    +0.112 C 
ATOM     10  C   UNL     1       1.531   2.690   0.199  0.00  0.00    +0.164 C 
ATOM     11  C   UNL     1       3.284   1.400   1.206  0.00  0.00    +0.044 C 
ATOM     12  C   UNL     1       3.049   2.613   0.308  0.00  0.00    +0.145 C 
ENDROOT
BRANCH   8  13
ATOM      5  N   UNL     1       2.360  -3.305   0.936  0.00  0.00    -0.263 NA
ATOM     13  C   UNL     1       2.399  -0.922   0.531  0.00  0.00    -0.024 A 
ATOM     14  C   UNL     1       3.043  -1.132  -0.683  0.00  0.00    +0.007 A 
ATOM     16  C   UNL     1       2.082  -2.032   1.297  0.00  0.00    +0.114 A 
ATOM     18  C   UNL     1       3.346  -2.428  -1.089  0.00  0.00    +0.020 A 
ATOM     19  C   UNL     1       2.986  -3.470  -0.250  0.00  0.00    +0.111 A 
ENDBRANCH   8  13
BRANCH   9   4
ATOM      3  O   UNL     1      -0.608  -0.777  -1.086  0.00  0.00    -0.269 OA
ATOM      4  N   UNL     1      -0.269   1.019   0.343  0.00  0.00    -0.304 N 
ATOM     15  C   UNL     1      -1.028   0.018  -0.249  0.00  0.00    +0.262 C 
ATOM     25  H   UNL     1      -0.694   1.617   1.046  0.00  0.00    +0.149 HD
BRANCH  15  17
ATOM      6  N   UNL     1      -3.483  -0.489  -0.615  0.00  0.00    -0.259 N 
ATOM      7  N   UNL     1      -4.680  -0.451  -0.004  0.00  0.00    -0.176 NA
ATOM     17  C   UNL     1      -2.453  -0.050   0.165  0.00  0.00    +0.123 A 
ATOM     20  C   UNL     1      -3.016   0.299   1.368  0.00  0.00    +0.057 A 
ATOM     22  C   UNL     1      -4.388   0.031   1.206  0.00  0.00    +0.061 A 
ATOM     24  C   UNL     1      -5.462   0.224   2.195  0.00  0.00    +0.067 C 
BRANCH   6  21
ATOM     21  C   UNL     1      -3.399  -0.968  -1.975  0.00  0.00    +0.141 C 
ATOM     23  C   UNL     1      -3.247   0.174  -2.969  0.00  0.00    +0.029 C 
ENDBRANCH   6  21
ENDBRANCH  15  17
ENDBRANCH   9   4
BRANCH  10   1
ATOM      1  O   UNL     1       1.138   3.490  -0.900  0.00  0.00    -0.387 OA
ATOM     26  H   UNL     1       1.513   4.377  -0.765  0.00  0.00    +0.210 HD
ENDBRANCH  10   1
BRANCH  12   2
ATOM      2  O   UNL     1       3.640   2.362  -0.963  0.00  0.00    -0.389 OA
ATOM     27  H   UNL     1       4.600   2.283  -0.828  0.00  0.00    +0.210 HD
ENDBRANCH  12   2
TORSDOF 6
