REMARK  Name = 26743179
REMARK  10 active torsions:
REMARK  status: ('A' for Active; 'I' for Inactive)
REMARK    1  A    between atoms: O_3  and  C_20
REMARK    2  A    between atoms: O_3  and  C_22
REMARK    3  A    between atoms: N_5  and  C_18
REMARK    4  A    between atoms: N_5  and  C_19
REMARK    5  A    between atoms: C_7  and  C_13
REMARK    6  A    between atoms: C_8  and  C_12
REMARK    7  A    between atoms: C_12  and  C_14
REMARK    8  A    between atoms: C_13  and  C_15
REMARK    9  A    between atoms: C_17  and  C_20
REMARK   10  A    between atoms: C_18  and  C_21
REMARK                            x       y       z     vdW  Elec       q    Type
REMARK                         _______ _______ _______ _____ _____    ______ ____
ROOT
ATOM      4  N   UNL     1       2.111   3.045   1.653  0.00  0.00    -0.316 NA
ATOM      7  C   UNL     1       3.303   1.327  -0.428  0.00  0.00    +0.004 C 
ATOM      8  C   UNL     1       1.779   1.388  -0.166  0.00  0.00    +0.012 C 
ATOM      9  C   UNL     1       3.948   2.637   0.053  0.00  0.00    +0.019 C 
ATOM     10  C   UNL     1       1.468   1.782   1.287  0.00  0.00    +0.085 C 
ATOM     11  C   UNL     1       3.562   2.984   1.491  0.00  0.00    +0.081 C 
ATOM     29  H   UNL     1       1.890   3.268   2.623  0.00  0.00    +0.122 HD
ENDROOT
BRANCH   8  12
ATOM     12  C   UNL     1       1.055   0.094  -0.539  0.00  0.00    +0.064 C 
BRANCH  12  14
ATOM      2  O   UNL     1      -2.206   0.797  -1.894  0.00  0.00    -0.356 OA
ATOM      6  N   UNL     1      -0.830   0.642  -2.016  0.00  0.00    -0.083 NA
ATOM     14  C   UNL     1      -0.406   0.337  -0.787  0.00  0.00    +0.084 A 
ATOM     16  C   UNL     1      -1.458   0.285   0.144  0.00  0.00    +0.074 A 
ATOM     17  C   UNL     1      -2.568   0.582  -0.603  0.00  0.00    +0.175 A 
BRANCH  17  20
ATOM     20  C   UNL     1      -3.998   0.705  -0.294  0.00  0.00    +0.306 C 
BRANCH  20   3
ATOM      3  O   UNL     1      -4.580  -0.589  -0.116  0.00  0.00    -0.484 OA
BRANCH   3  22
ATOM     22  C   UNL     1      -5.927  -0.625   0.113  0.00  0.00    +0.121 A 
ATOM     24  C   UNL     1      -6.657   0.563   0.163  0.00  0.00    +0.045 A 
ATOM     25  C   UNL     1      -6.571  -1.848   0.297  0.00  0.00    +0.045 A 
ATOM     26  C   UNL     1      -8.032   0.527   0.398  0.00  0.00    +0.004 A 
ATOM     27  C   UNL     1      -7.946  -1.884   0.531  0.00  0.00    +0.004 A 
ATOM     28  C   UNL     1      -8.676  -0.697   0.582  0.00  0.00    +0.000 A 
ENDBRANCH   3  22
ENDBRANCH  20   3
ENDBRANCH  17  20
ENDBRANCH  12  14
ENDBRANCH   8  12
BRANCH   7  13
ATOM     13  C   UNL     1       3.996   0.113   0.203  0.00  0.00    +0.100 C 
BRANCH  13  15
ATOM      1  O   UNL     1       5.740   0.479  -1.400  0.00  0.00    -0.276 OA
ATOM      5  N   UNL     1       6.024  -1.298   0.063  0.00  0.00    -0.293 N 
ATOM     15  C   UNL     1       5.326  -0.204  -0.460  0.00  0.00    +0.216 C 
ATOM     19  C   UNL     1       7.313  -1.727  -0.464  0.00  0.00    +0.133 C 
BRANCH   5  18
ATOM     18  C   UNL     1       5.513  -2.092   1.178  0.00  0.00    +0.196 C 
BRANCH  18  21
ATOM     21  C   UNL     1       4.694  -3.205   0.700  0.00  0.00    -0.086 C 
ATOM     23  C   UNL     1       4.020  -4.120   0.311  0.00  0.00    +0.005 C 
ENDBRANCH  18  21
ENDBRANCH   5  18
ENDBRANCH  13  15
ENDBRANCH   7  13
TORSDOF 9
