REMARK  Name = 45783825
REMARK  7 active torsions:
REMARK  status: ('A' for Active; 'I' for Inactive)
REMARK    1  A    between atoms: N_2  and  C_10
REMARK    2  A    between atoms: N_6  and  C_21
REMARK    3  A    between atoms: N_6  and  C_22
REMARK    4  A    between atoms: N_6  and  C_23
REMARK    5  A    between atoms: C_7  and  C_10
REMARK    6  A    between atoms: C_11  and  C_15
REMARK    7  A    between atoms: C_16  and  C_17
REMARK                            x       y       z     vdW  Elec       q    Type
REMARK                         _______ _______ _______ _____ _____    ______ ____
ROOT
ATOM      1  O   UNL     1      -1.274  -2.207   1.254  0.00  0.00    -0.336 OA
ATOM      3  N   UNL     1      -0.705  -0.558  -0.152  0.00  0.00    -0.190 NA
ATOM      4  N   UNL     1       0.119  -2.088   1.336  0.00  0.00    -0.056 NA
ATOM     15  C   UNL     1      -1.679  -1.270   0.356  0.00  0.00    +0.245 A 
ATOM     16  C   UNL     1       0.379  -1.096   0.479  0.00  0.00    +0.204 A 
ENDROOT
BRANCH  16  17
ATOM      5  N   UNL     1       4.077  -0.773   0.688  0.00  0.00    -0.240 NA
ATOM     17  C   UNL     1       1.709  -0.620   0.230  0.00  0.00    +0.041 A 
ATOM     18  C   UNL     1       1.942   0.414  -0.670  0.00  0.00    +0.016 A 
ATOM     19  C   UNL     1       2.800  -1.175   0.877  0.00  0.00    +0.124 A 
ATOM     20  C   UNL     1       3.243   0.855  -0.891  0.00  0.00    +0.044 A 
ATOM     21  C   UNL     1       4.266   0.234  -0.194  0.00  0.00    +0.121 A 
BRANCH  21   6
ATOM      6  N   UNL     1       5.585   0.694  -0.431  0.00  0.00    -0.321 N 
ATOM     22  C   UNL     1       6.700   0.096   0.269  0.00  0.00    +0.130 C 
ATOM     23  C   UNL     1       5.823   1.768  -1.368  0.00  0.00    +0.130 C 
ENDBRANCH  21   6
ENDBRANCH  16  17
BRANCH  15  11
ATOM      2  N   UNL     1      -3.598   0.154  -0.337  0.00  0.00    -0.291 NA
ATOM     11  C   UNL     1      -3.167  -1.194   0.087  0.00  0.00    +0.146 C 
ATOM     12  C   UNL     1      -4.764  -0.037  -1.200  0.00  0.00    +0.085 C 
ATOM     13  C   UNL     1      -3.613  -2.124  -1.057  0.00  0.00    +0.030 C 
ATOM     14  C   UNL     1      -4.338  -1.221  -2.045  0.00  0.00    +0.017 C 
BRANCH   2  10
ATOM     10  C   UNL     1      -3.884   1.043   0.782  0.00  0.00    +0.088 C 
BRANCH  10   7
ATOM      7  C   UNL     1      -3.802   2.477   0.371  0.00  0.00    +0.003 C 
ATOM      8  C   UNL     1      -2.455   3.127   0.241  0.00  0.00    +0.005 C 
ATOM      9  C   UNL     1      -3.364   3.503   1.374  0.00  0.00    +0.005 C 
ENDBRANCH  10   7
ENDBRANCH   2  10
ENDBRANCH  15  11
TORSDOF 5
