REMARK  Name = 7135440
REMARK  14 active torsions:
REMARK  status: ('A' for Active; 'I' for Inactive)
REMARK    1  A    between atoms: O_1  and  C_17
REMARK    2  A    between atoms: O_1  and  C_22
REMARK    3  A    between atoms: O_3  and  C_24
REMARK    4  A    between atoms: O_3  and  C_30
REMARK    5  A    between atoms: O_4  and  C_29
REMARK    6  A    between atoms: O_4  and  C_31
REMARK    7  A    between atoms: N_5  and  C_21
REMARK    8  A    between atoms: C_6  and  C_9
REMARK    9  A    between atoms: C_9  and  C_15
REMARK   10  A    between atoms: C_9  and  C_16
REMARK   11  A    between atoms: C_13  and  C_19
REMARK   12  A    between atoms: C_14  and  C_20
REMARK   13  A    between atoms: C_21  and  C_23
REMARK   14  A    between atoms: C_22  and  C_24
REMARK                            x       y       z     vdW  Elec       q    Type
REMARK                         _______ _______ _______ _____ _____    ______ ____
ROOT
ATOM      6  C   UNL     1      -1.325   2.615  -0.339  0.00  0.00    +0.005 C 
ATOM      7  C   UNL     1      -0.584   3.951  -0.238  0.00  0.00    +0.009 C 
ATOM      8  C   UNL     1      -0.354   1.516  -0.796  0.00  0.00    +0.040 C 
ATOM     10  C   UNL     1       0.521   3.873   0.814  0.00  0.00    +0.036 C 
ATOM     11  C   UNL     1       0.952   1.517  -0.040  0.00  0.00    -0.037 A 
ATOM     12  C   UNL     1       1.382   2.642   0.686  0.00  0.00    -0.041 A 
ATOM     13  C   UNL     1       1.780   0.386  -0.111  0.00  0.00    -0.005 A 
ATOM     14  C   UNL     1       2.615   2.600   1.355  0.00  0.00    -0.044 A 
ATOM     17  C   UNL     1       3.007   0.361   0.550  0.00  0.00    +0.124 A 
ATOM     18  C   UNL     1       3.423   1.467   1.285  0.00  0.00    +0.049 A 
ATOM     19  C   UNL     1       1.371  -0.816  -0.907  0.00  0.00    +0.048 C 
ATOM     20  C   UNL     1       3.101   3.756   2.171  0.00  0.00    +0.044 C 
ENDROOT
BRANCH   6   9
ATOM      9  C   UNL     1      -2.510   2.718  -1.296  0.00  0.00    +0.075 C 
ATOM     15  C   UNL     1      -3.453   3.837  -0.859  0.00  0.00    +0.017 C 
BRANCH   9  16
ATOM      2  O   UNL     1      -3.380   0.754  -2.421  0.00  0.00    -0.276 OA
ATOM      5  N   UNL     1      -3.799   1.011  -0.154  0.00  0.00    -0.311 N 
ATOM     16  C   UNL     1      -3.268   1.394  -1.378  0.00  0.00    +0.216 C 
ATOM     32  H   UNL     1      -3.665   1.596   0.664  0.00  0.00    +0.149 HD
BRANCH   5  21
ATOM     21  C   UNL     1      -4.554  -0.207   0.022  0.00  0.00    +0.139 C 
BRANCH  21  23
ATOM     23  C   UNL     1      -3.673  -1.367   0.386  0.00  0.00    -0.030 A 
ATOM     25  C   UNL     1      -3.406  -1.648   1.726  0.00  0.00    +0.009 A 
ATOM     26  C   UNL     1      -3.121  -2.164  -0.617  0.00  0.00    +0.009 A 
ATOM     27  C   UNL     1      -2.588  -2.726   2.063  0.00  0.00    +0.046 A 
ATOM     28  C   UNL     1      -2.303  -3.243  -0.280  0.00  0.00    +0.046 A 
ATOM     29  C   UNL     1      -2.036  -3.523   1.060  0.00  0.00    +0.120 A 
BRANCH  29   4
ATOM      4  O   UNL     1      -1.238  -4.575   1.389  0.00  0.00    -0.495 OA
ATOM     31  C   UNL     1      -0.707  -5.349   0.314  0.00  0.00    +0.277 C 
ENDBRANCH  29   4
ENDBRANCH  21  23
ENDBRANCH   5  21
ENDBRANCH   9  16
ENDBRANCH   6   9
BRANCH  17   1
ATOM      1  O   UNL     1       3.814  -0.736   0.488  0.00  0.00    -0.489 OA
BRANCH   1  22
ATOM     22  C   UNL     1       5.114  -0.552  -0.070  0.00  0.00    +0.257 C 
BRANCH  22  24
ATOM     24  C   UNL     1       5.565  -1.851  -0.710  0.00  0.00    +0.200 C 
BRANCH  24   3
ATOM      3  O   UNL     1       4.634  -2.219  -1.720  0.00  0.00    -0.380 OA
ATOM     30  C   UNL     1       5.020  -3.421  -2.372  0.00  0.00    +0.194 C 
ENDBRANCH  24   3
ENDBRANCH  22  24
ENDBRANCH   1  22
ENDBRANCH  17   1
TORSDOF 9
