REMARK  Name = 45361144
REMARK  7 active torsions:
REMARK  status: ('A' for Active; 'I' for Inactive)
REMARK    1  A    between atoms: N_4  and  C_18
REMARK    2  A    between atoms: N_5  and  C_17
REMARK    3  A    between atoms: N_8  and  C_30
REMARK    4  A    between atoms: C_13  and  C_16
REMARK    5  A    between atoms: C_16  and  C_19
REMARK    6  A    between atoms: C_17  and  C_20
REMARK    7  A    between atoms: C_19  and  C_21
REMARK                            x       y       z     vdW  Elec       q    Type
REMARK                         _______ _______ _______ _____ _____    ______ ____
ROOT
ATOM      2  O   UNL     1      -1.009   0.416   1.329  0.00  0.00    -0.274 OA
ATOM      4  N   UNL     1       0.557  -2.356  -0.874  0.00  0.00    -0.296 NA
ATOM      5  N   UNL     1      -2.751  -0.922  -0.242  0.00  0.00    -0.286 NA
ATOM      6  N   UNL     1       0.256  -1.421   1.839  0.00  0.00    -0.312 N 
ATOM      9  C   UNL     1      -0.922  -2.403  -0.839  0.00  0.00    +0.084 C 
ATOM     10  C   UNL     1      -1.657  -1.716   0.349  0.00  0.00    +0.161 C 
ATOM     11  C   UNL     1      -1.598  -1.746  -2.057  0.00  0.00    +0.036 C 
ATOM     12  C   UNL     1      -3.005  -1.467  -1.571  0.00  0.00    +0.087 C 
ATOM     13  C   UNL     1       1.223  -3.062   0.255  0.00  0.00    +0.074 C 
ATOM     14  C   UNL     1      -0.790  -0.787   1.195  0.00  0.00    +0.232 C 
ATOM     15  C   UNL     1       0.589  -2.818   1.638  0.00  0.00    +0.123 C 
ATOM     18  C   UNL     1       1.066  -2.858  -2.162  0.00  0.00    +0.105 C 
ATOM     32  H   UNL     1       0.823  -0.874   2.479  0.00  0.00    +0.149 HD
ENDROOT
BRANCH  13  16
ATOM     16  C   UNL     1       2.708  -2.652   0.347  0.00  0.00    +0.029 C 
BRANCH  16  19
ATOM     19  C   UNL     1       2.884  -1.147   0.305  0.00  0.00    +0.097 C 
BRANCH  19  21
ATOM      3  O   UNL     1       5.189  -1.650   0.530  0.00  0.00    -0.276 OA
ATOM      7  N   UNL     1       4.628   0.600   0.396  0.00  0.00    -0.299 N 
ATOM      8  N   UNL     1       5.360   3.248  -0.417  0.00  0.00    -0.302 NA
ATOM     21  C   UNL     1       4.338  -0.764   0.422  0.00  0.00    +0.216 C 
ATOM     22  C   UNL     1       3.635   1.678   0.403  0.00  0.00    +0.123 C 
ATOM     23  C   UNL     1       6.014   1.052   0.500  0.00  0.00    +0.123 C 
ATOM     26  C   UNL     1       3.988   2.760  -0.619  0.00  0.00    +0.103 C 
ATOM     27  C   UNL     1       6.321   2.141  -0.528  0.00  0.00    +0.103 C 
ATOM     30  C   UNL     1       5.677   4.302  -1.379  0.00  0.00    +0.105 C 
ENDBRANCH  19  21
ENDBRANCH  16  19
ENDBRANCH  13  16
BRANCH   5  17
ATOM     17  C   UNL     1      -3.954  -0.895   0.579  0.00  0.00    +0.120 C 
BRANCH  17  20
ATOM      1 CL   UNL     1      -4.879   4.220   0.952  0.00  0.00    -0.084 Cl
ATOM     20  C   UNL     1      -4.832   0.283   0.248  0.00  0.00    -0.032 A 
ATOM     24  C   UNL     1      -4.489   1.557   0.700  0.00  0.00    +0.025 A 
ATOM     25  C   UNL     1      -5.988   0.100  -0.511  0.00  0.00    +0.005 A 
ATOM     28  C   UNL     1      -5.301   2.648   0.393  0.00  0.00    +0.041 A 
ATOM     29  C   UNL     1      -6.801   1.191  -0.817  0.00  0.00    +0.002 A 
ATOM     31  C   UNL     1      -6.458   2.466  -0.366  0.00  0.00    +0.020 A 
ENDBRANCH  17  20
ENDBRANCH   5  17
TORSDOF 5
