REMARK  Name = 25389527
REMARK  9 active torsions:
REMARK  status: ('A' for Active; 'I' for Inactive)
REMARK    1  A    between atoms: O_1  and  C_15
REMARK    2  A    between atoms: O_1  and  C_20
REMARK    3  A    between atoms: N_4  and  C_18
REMARK    4  A    between atoms: N_6  and  C_23
REMARK    5  A    between atoms: C_8  and  C_14
REMARK    6  A    between atoms: C_9  and  C_15
REMARK    7  A    between atoms: C_17  and  C_19
REMARK    8  A    between atoms: C_23  and  C_27
REMARK    9  A    between atoms: C_23  and  C_28
REMARK                            x       y       z     vdW  Elec       q    Type
REMARK                         _______ _______ _______ _____ _____    ______ ____
ROOT
ATOM      3  N   UNL     1      -4.004  -2.012   0.531  0.00  0.00    -0.296 NA
ATOM      7  C   UNL     1      -2.450  -2.370  -1.528  0.00  0.00    +0.002 C 
ATOM      8  C   UNL     1      -1.800  -2.961  -0.247  0.00  0.00    +0.055 C 
ATOM      9  C   UNL     1      -3.832  -0.732  -0.204  0.00  0.00    +0.095 C 
ATOM     10  C   UNL     1      -2.755  -0.874  -1.302  0.00  0.00    +0.026 C 
ATOM     11  C   UNL     1      -3.805  -3.087  -1.710  0.00  0.00    +0.019 C 
ATOM     12  C   UNL     1      -2.682  -2.534   0.961  0.00  0.00    +0.094 C 
ATOM     13  C   UNL     1      -4.608  -2.994  -0.401  0.00  0.00    +0.085 C 
ENDROOT
BRANCH   8  14
ATOM      4  N   UNL     1       0.492  -3.568   0.660  0.00  0.00    -0.270 N 
ATOM      5  N   UNL     1       1.764  -3.148   0.770  0.00  0.00    -0.171 NA
ATOM     14  C   UNL     1      -0.321  -2.696  -0.004  0.00  0.00    +0.044 A 
ATOM     16  C   UNL     1       0.474  -1.632  -0.351  0.00  0.00    +0.053 A 
ATOM     17  C   UNL     1       1.747  -1.965   0.151  0.00  0.00    +0.093 A 
ATOM     18  C   UNL     1       0.117  -4.842   1.228  0.00  0.00    +0.172 C 
BRANCH  17  19
ATOM     19  C   UNL     1       2.946  -1.174   0.051  0.00  0.00    +0.003 A 
ATOM     21  C   UNL     1       2.861   0.218   0.007  0.00  0.00    +0.018 A 
ATOM     22  C   UNL     1       4.189  -1.798  -0.001  0.00  0.00    +0.011 A 
ATOM     24  C   UNL     1       4.021   1.004  -0.090  0.00  0.00    -0.017 A 
ATOM     25  C   UNL     1       5.351  -1.033  -0.097  0.00  0.00    +0.009 A 
ATOM     26  C   UNL     1       5.285   0.369  -0.142  0.00  0.00    -0.018 A 
ATOM     29  C   UNL     1       3.955   2.406  -0.136  0.00  0.00    +0.008 A 
ATOM     30  C   UNL     1       6.445   1.155  -0.239  0.00  0.00    +0.008 A 
ATOM     31  C   UNL     1       5.117   3.171  -0.232  0.00  0.00    +0.001 A 
ATOM     32  C   UNL     1       6.360   2.546  -0.283  0.00  0.00    +0.001 A 
ENDBRANCH  17  19
ENDBRANCH   8  14
BRANCH   9  15
ATOM     15  C   UNL     1      -3.539   0.443   0.732  0.00  0.00    +0.252 C 
BRANCH  15   1
ATOM      1  O   UNL     1      -3.501   1.629  -0.039  0.00  0.00    -0.449 OA
BRANCH   1  20
ATOM      2  O   UNL     1      -3.059   2.853   1.853  0.00  0.00    -0.226 OA
ATOM      6  N   UNL     1      -3.238   3.865  -0.227  0.00  0.00    -0.279 N 
ATOM     20  C   UNL     1      -3.247   2.795   0.642  0.00  0.00    +0.401 C 
ATOM     33  H   UNL     1      -3.362   3.671  -1.216  0.00  0.00    +0.152 HD
BRANCH   6  23
ATOM     23  C   UNL     1      -3.000   5.230   0.184  0.00  0.00    +0.070 C 
ATOM     27  C   UNL     1      -3.773   6.194  -0.707  0.00  0.00    +0.027 C 
ATOM     28  C   UNL     1      -1.508   5.540   0.169  0.00  0.00    +0.027 C 
ENDBRANCH   6  23
ENDBRANCH   1  20
ENDBRANCH  15   1
ENDBRANCH   9  15
TORSDOF 6
