REMARK  Name = 11913027
REMARK  4 active torsions:
REMARK  status: ('A' for Active; 'I' for Inactive)
REMARK    1  A    between atoms: N_4  and  C_10
REMARK    2  A    between atoms: N_5  and  C_11
REMARK    3  A    between atoms: C_14  and  C_15
REMARK    4  A    between atoms: C_18  and  C_27
REMARK                            x       y       z     vdW  Elec       q    Type
REMARK                         _______ _______ _______ _____ _____    ______ ____
ROOT
ATOM      1  O   UNL     1       0.118   1.568   1.531  0.00  0.00    -0.370 OA
ATOM      2  O   UNL     1      -0.513   3.050  -1.141  0.00  0.00    -0.370 OA
ATOM      8  C   UNL     1      -0.948   1.799  -0.583  0.00  0.00    +0.171 C 
ATOM      9  C   UNL     1       0.236   1.195   0.148  0.00  0.00    +0.171 C 
ATOM     10  C   UNL     1      -1.970   2.036   0.505  0.00  0.00    +0.130 C 
ATOM     11  C   UNL     1       1.436   1.867  -0.476  0.00  0.00    +0.130 C 
ATOM     12  C   UNL     1      -1.097   2.309   1.717  0.00  0.00    +0.185 C 
ATOM     13  C   UNL     1       0.887   3.223  -0.879  0.00  0.00    +0.185 C 
ENDROOT
BRANCH  11   5
ATOM      5  N   UNL     1       1.863   1.131  -1.646  0.00  0.00    -0.306 N 
ATOM      6  N   UNL     1       3.166  -0.350  -0.376  0.00  0.00    -0.219 NA
ATOM      7  N   UNL     1       3.033  -0.561  -2.773  0.00  0.00    -0.223 NA
ATOM     26  C   UNL     1       2.713   0.041  -1.597  0.00  0.00    +0.216 A 
ATOM     27  C   UNL     1       3.993  -1.416  -0.365  0.00  0.00    +0.049 A 
ATOM     28  C   UNL     1       4.379  -2.098  -1.501  0.00  0.00    +0.043 A 
ATOM     29  C   UNL     1       3.864  -1.621  -2.689  0.00  0.00    +0.116 A 
ATOM     31  H   UNL     1       1.489   1.381  -2.555  0.00  0.00    +0.149 HD
BRANCH  27  18
ATOM     18  C   UNL     1       4.509  -1.867   0.990  0.00  0.00    +0.038 C 
ATOM     22  C   UNL     1       5.826  -1.174   1.358  0.00  0.00    +0.010 C 
ATOM     23  C   UNL     1       3.625  -1.563   2.208  0.00  0.00    +0.010 C 
ATOM     24  C   UNL     1       5.393   0.121   2.031  0.00  0.00    +0.001 C 
ATOM     25  C   UNL     1       4.103  -0.221   2.768  0.00  0.00    +0.001 C 
ENDBRANCH  27  18
ENDBRANCH  11   5
BRANCH  10   4
ATOM      3  O   UNL     1      -4.565   1.487  -0.676  0.00  0.00    -0.276 OA
ATOM      4  N   UNL     1      -2.797   0.871   0.708  0.00  0.00    -0.307 N 
ATOM     15  C   UNL     1      -4.028   0.697   0.096  0.00  0.00    +0.216 C 
ATOM     30  H   UNL     1      -2.421   0.119   1.279  0.00  0.00    +0.149 HD
BRANCH  15  14
ATOM     14  C   UNL     1      -4.666  -0.611   0.459  0.00  0.00    +0.075 C 
ATOM     16  C   UNL     1      -6.190  -0.472   0.441  0.00  0.00    +0.013 C 
ATOM     17  C   UNL     1      -4.192  -1.706  -0.499  0.00  0.00    +0.013 C 
ATOM     19  C   UNL     1      -6.881  -1.805   0.713  0.00  0.00    +0.001 C 
ATOM     20  C   UNL     1      -4.889  -3.036  -0.225  0.00  0.00    +0.001 C 
ATOM     21  C   UNL     1      -6.407  -2.892  -0.247  0.00  0.00    +0.000 C 
ENDBRANCH  15  14
ENDBRANCH  10   4
TORSDOF 4
