REMARK  Name = 75368706
REMARK  7 active torsions:
REMARK  status: ('A' for Active; 'I' for Inactive)
REMARK    1  A    between atoms: O_2  and  C_16
REMARK    2  A    between atoms: O_2  and  C_25
REMARK    3  A    between atoms: N_4  and  C_13
REMARK    4  A    between atoms: N_5  and  C_14
REMARK    5  A    between atoms: N_6  and  C_22
REMARK    6  A    between atoms: C_13  and  C_15
REMARK    7  A    between atoms: C_14  and  C_16
REMARK                            x       y       z     vdW  Elec       q    Type
REMARK                         _______ _______ _______ _____ _____    ______ ____
ROOT
ATOM      1  O   UNL     1       4.475   1.950  -0.223  0.00  0.00    -0.252 OA
ATOM      3  N   UNL     1       2.237   1.236  -0.207  0.00  0.00    -0.278 N 
ATOM      4  N   UNL     1      -0.348   0.728   0.776  0.00  0.00    -0.295 NA
ATOM      5  N   UNL     1       3.772  -0.097  -1.160  0.00  0.00    -0.281 N 
ATOM      7  C   UNL     1       1.470   0.150  -0.779  0.00  0.00    +0.109 C 
ATOM      8  C   UNL     1       0.463  -0.384   0.240  0.00  0.00    +0.109 C 
ATOM      9  C   UNL     1       2.534  -0.854  -1.216  0.00  0.00    +0.133 C 
ATOM     10  C   UNL     1       1.546   2.309   0.478  0.00  0.00    +0.125 C 
ATOM     11  C   UNL     1       0.507   1.731   1.442  0.00  0.00    +0.104 C 
ATOM     12  C   UNL     1       3.604   1.136  -0.498  0.00  0.00    +0.305 C 
ENDROOT
BRANCH   4  13
ATOM     13  C   UNL     1      -1.356   0.220   1.707  0.00  0.00    +0.121 C 
BRANCH  13  15
ATOM      6  N   UNL     1      -3.900  -1.926   0.137  0.00  0.00    -0.349 N 
ATOM     15  C   UNL     1      -2.518  -0.410   0.986  0.00  0.00    -0.008 A 
ATOM     17  C   UNL     1      -3.573   0.274   0.320  0.00  0.00    +0.004 A 
ATOM     18  C   UNL     1      -2.747  -1.761   0.856  0.00  0.00    +0.091 A 
ATOM     19  C   UNL     1      -4.426  -0.700  -0.204  0.00  0.00    +0.049 A 
ATOM     20  C   UNL     1      -3.885   1.632   0.112  0.00  0.00    +0.010 A 
ATOM     21  C   UNL     1      -5.581  -0.382  -0.928  0.00  0.00    +0.026 A 
ATOM     22  C   UNL     1      -4.470  -3.210  -0.207  0.00  0.00    +0.149 C 
ATOM     23  C   UNL     1      -5.037   1.965  -0.611  0.00  0.00    +0.001 A 
ATOM     24  C   UNL     1      -5.870   0.972  -1.122  0.00  0.00    +0.002 A 
ENDBRANCH  13  15
ENDBRANCH   4  13
BRANCH   5  14
ATOM     14  C   UNL     1       5.031  -0.652  -1.606  0.00  0.00    +0.137 C 
BRANCH  14  16
ATOM     16  C   UNL     1       5.650  -1.550  -0.550  0.00  0.00    +0.178 C 
BRANCH  16   2
ATOM      2  O   UNL     1       5.917  -0.789   0.620  0.00  0.00    -0.381 OA
ATOM     25  C   UNL     1       6.503  -1.587   1.639  0.00  0.00    +0.194 C 
ENDBRANCH  16   2
ENDBRANCH  14  16
ENDBRANCH   5  14
TORSDOF 5
