REMARK  Name = 11942317
REMARK  9 active torsions:
REMARK  status: ('A' for Active; 'I' for Inactive)
REMARK    1  A    between atoms: N_4  and  C_15
REMARK    2  A    between atoms: N_5  and  C_18
REMARK    3  A    between atoms: C_9  and  C_15
REMARK    4  A    between atoms: C_10  and  C_16
REMARK    5  A    between atoms: C_18  and  C_21
REMARK    6  A    between atoms: C_19  and  C_20
REMARK    7  A    between atoms: C_20  and  C_22
REMARK    8  A    between atoms: C_20  and  C_23
REMARK    9  A    between atoms: C_20  and  C_24
REMARK                            x       y       z     vdW  Elec       q    Type
REMARK                         _______ _______ _______ _____ _____    ______ ____
ROOT
ATOM      3  N   UNL     1      -0.038   2.750  -1.619  0.00  0.00    -0.297 NA
ATOM      8  C   UNL     1       0.318   3.230   0.914  0.00  0.00    +0.005 C 
ATOM      9  C   UNL     1      -1.023   1.980  -0.813  0.00  0.00    +0.078 C 
ATOM     10  C   UNL     1       1.635   2.805   0.236  0.00  0.00    +0.092 C 
ATOM     11  C   UNL     1      -0.737   2.127   0.698  0.00  0.00    +0.025 C 
ATOM     12  C   UNL     1      -0.176   4.487   0.176  0.00  0.00    +0.020 C 
ATOM     13  C   UNL     1       1.345   2.393  -1.218  0.00  0.00    +0.097 C 
ATOM     14  C   UNL     1      -0.244   4.192  -1.334  0.00  0.00    +0.085 C 
ENDROOT
BRANCH  10  16
ATOM      2  O   UNL     1       1.811   1.224   2.016  0.00  0.00    -0.275 OA
ATOM      5  N   UNL     1       3.524   1.348   0.445  0.00  0.00    -0.311 N 
ATOM     16  C   UNL     1       2.309   1.707   1.002  0.00  0.00    +0.218 C 
ATOM     30  H   UNL     1       3.843   1.816  -0.399  0.00  0.00    +0.149 HD
BRANCH   5  18
ATOM     18  C   UNL     1       4.382   0.330   1.006  0.00  0.00    +0.139 C 
BRANCH  18  21
ATOM      1  F   UNL     1       3.234  -4.763  -1.077  0.00  0.00    -0.205 F 
ATOM     21  C   UNL     1       4.075  -1.031   0.450  0.00  0.00    -0.030 A 
ATOM     25  C   UNL     1       3.136  -1.837   1.083  0.00  0.00    +0.008 A 
ATOM     26  C   UNL     1       4.734  -1.471  -0.692  0.00  0.00    +0.008 A 
ATOM     27  C   UNL     1       2.852  -3.101   0.566  0.00  0.00    +0.038 A 
ATOM     28  C   UNL     1       4.449  -2.735  -1.209  0.00  0.00    +0.038 A 
ATOM     29  C   UNL     1       3.508  -3.550  -0.580  0.00  0.00    +0.123 A 
ENDBRANCH  18  21
ENDBRANCH   5  18
ENDBRANCH  10  16
BRANCH   9  15
ATOM     15  C   UNL     1      -1.102   0.512  -1.237  0.00  0.00    +0.164 C 
BRANCH  15   4
ATOM      4  N   UNL     1      -2.167  -0.194  -0.544  0.00  0.00    -0.250 N 
ATOM      6  N   UNL     1      -1.921  -0.808   0.618  0.00  0.00    -0.065 NA
ATOM      7  N   UNL     1      -3.064  -1.363   1.007  0.00  0.00    -0.134 NA
ATOM     17  C   UNL     1      -3.454  -0.328  -0.939  0.00  0.00    +0.134 A 
ATOM     19  C   UNL     1      -4.012  -1.079   0.065  0.00  0.00    +0.088 A 
BRANCH  19  20
ATOM     20  C   UNL     1      -5.394  -1.556   0.205  0.00  0.00    +0.008 C 
ATOM     22  C   UNL     1      -5.838  -2.483  -0.984  0.00  0.00    +0.017 C 
ATOM     23  C   UNL     1      -6.437  -0.381   0.263  0.00  0.00    +0.017 C 
ATOM     24  C   UNL     1      -5.703  -2.408   1.495  0.00  0.00    +0.017 C 
ENDBRANCH  19  20
ENDBRANCH  15   4
ENDBRANCH   9  15
TORSDOF 6
