REMARK  Name = 56776079
REMARK  3 active torsions:
REMARK  status: ('A' for Active; 'I' for Inactive)
REMARK    1  A    between atoms: N_9  and  C_30
REMARK    2  A    between atoms: C_11  and  C_16
REMARK    3  A    between atoms: C_16  and  C_18
REMARK                            x       y       z     vdW  Elec       q    Type
REMARK                         _______ _______ _______ _____ _____    ______ ____
ROOT
ATOM      1  O   UNL     1      -1.502  -1.602   1.707  0.00  0.00    -0.492 OA
ATOM      3  O   UNL     1      -0.274  -4.469  -0.147  0.00  0.00    -0.274 OA
ATOM      6  N   UNL     1       1.403  -3.059  -0.898  0.00  0.00    -0.300 N 
ATOM      8  N   UNL     1      -1.481  -1.961  -1.564  0.00  0.00    -0.304 NA
ATOM     10  C   UNL     1       2.665  -1.999   0.945  0.00  0.00    +0.010 C 
ATOM     11  C   UNL     1       3.482  -1.196  -0.107  0.00  0.00    +0.004 C 
ATOM     12  C   UNL     1       2.651  -0.952  -1.379  0.00  0.00    +0.023 C 
ATOM     13  C   UNL     1       2.240  -3.322   0.277  0.00  0.00    +0.111 C 
ATOM     14  C   UNL     1       1.454  -1.201   1.485  0.00  0.00    +0.008 C 
ATOM     15  C   UNL     1       2.050  -2.244  -1.936  0.00  0.00    +0.108 C 
ATOM     17  C   UNL     1       0.680  -1.877   2.627  0.00  0.00    +0.041 C 
ATOM     19  C   UNL     1       0.134  -3.636  -0.966  0.00  0.00    +0.229 C 
ATOM     20  C   UNL     1      -0.683  -1.201   2.809  0.00  0.00    +0.229 C 
ATOM     21  C   UNL     1      -0.815  -3.169  -2.055  0.00  0.00    +0.178 C 
ATOM     26  C   UNL     1      -2.660  -2.280  -0.750  0.00  0.00    +0.120 C 
ATOM     27  C   UNL     1      -2.531  -0.788   1.318  0.00  0.00    +0.125 A 
ATOM     28  C   UNL     1      -3.123  -1.097   0.074  0.00  0.00    +0.010 A 
ATOM     29  C   UNL     1      -4.163  -0.289  -0.410  0.00  0.00    +0.031 A 
ATOM     30  C   UNL     1      -4.630   0.789   0.339  0.00  0.00    +0.030 A 
ATOM     31  C   UNL     1      -3.023   0.282   2.072  0.00  0.00    +0.048 A 
ATOM     32  C   UNL     1      -4.066   1.069   1.580  0.00  0.00    +0.027 A 
ATOM     37  H   UNL     1      -1.783  -1.397  -2.359  0.00  0.00    +0.123 HD
ENDROOT
BRANCH  30   9
ATOM      5  O   UNL     1      -7.556   3.432  -1.122  0.00  0.00    -0.377 OA
ATOM      9  N   UNL     1      -5.659   1.595  -0.160  0.00  0.00    -0.326 N 
ATOM     33  C   UNL     1      -6.578   2.265   0.767  0.00  0.00    +0.133 C 
ATOM     34  C   UNL     1      -5.438   2.292  -1.435  0.00  0.00    +0.133 C 
ATOM     35  C   UNL     1      -7.858   2.651   0.034  0.00  0.00    +0.178 C 
ATOM     36  C   UNL     1      -6.779   2.676  -2.050  0.00  0.00    +0.178 C 
ENDBRANCH  30   9
BRANCH  11  16
ATOM     16  C   UNL     1       4.045   0.119   0.433  0.00  0.00    +0.100 C 
BRANCH  16  18
ATOM      2  O   UNL     1       5.590  -0.144  -1.346  0.00  0.00    -0.276 OA
ATOM      4  O   UNL     1       6.622   4.452   0.162  0.00  0.00    -0.377 OA
ATOM      7  N   UNL     1       5.835   1.753  -0.030  0.00  0.00    -0.297 N 
ATOM     18  C   UNL     1       5.225   0.555  -0.398  0.00  0.00    +0.216 C 
ATOM     22  C   UNL     1       5.509   2.543   1.163  0.00  0.00    +0.136 C 
ATOM     23  C   UNL     1       6.983   2.252  -0.785  0.00  0.00    +0.136 C 
ATOM     24  C   UNL     1       5.421   4.022   0.808  0.00  0.00    +0.179 C 
ATOM     25  C   UNL     1       6.829   3.741  -1.062  0.00  0.00    +0.179 C 
ENDBRANCH  16  18
ENDBRANCH  11  16
TORSDOF 3
