REMARK  Name = 51137852
REMARK  3 active torsions:
REMARK  status: ('A' for Active; 'I' for Inactive)
REMARK    1  A    between atoms: C_8  and  C_12
REMARK    2  A    between atoms: C_13  and  C_14
REMARK    3  A    between atoms: C_15  and  C_18
REMARK                            x       y       z     vdW  Elec       q    Type
REMARK                         _______ _______ _______ _____ _____    ______ ____
ROOT
ATOM      2  O   UNL     1       2.557  -0.067   2.489  0.00  0.00    -0.270 OA
ATOM      3  N   UNL     1       1.767   1.309   0.792  0.00  0.00    -0.297 N 
ATOM      8  C   UNL     1       0.403   2.682  -0.592  0.00  0.00    +0.095 C 
ATOM      9  C   UNL     1       0.654   3.389   0.749  0.00  0.00    +0.033 C 
ATOM     10  C   UNL     1       1.525   1.635  -0.614  0.00  0.00    +0.121 C 
ATOM     11  C   UNL     1       1.118   2.269   1.671  0.00  0.00    +0.109 C 
ATOM     13  C   UNL     1       2.440   0.207   1.296  0.00  0.00    +0.248 C 
ENDROOT
BRANCH  13  14
ATOM      6  N   UNL     1       4.622  -1.079  -1.474  0.00  0.00    -0.263 NA
ATOM     14  C   UNL     1       3.051  -0.717   0.328  0.00  0.00    +0.055 A 
ATOM     16  C   UNL     1       2.672  -2.054   0.275  0.00  0.00    +0.016 A 
ATOM     17  C   UNL     1       4.022  -0.283  -0.561  0.00  0.00    +0.123 A 
ATOM     19  C   UNL     1       3.267  -2.904  -0.652  0.00  0.00    +0.020 A 
ATOM     22  C   UNL     1       4.228  -2.372  -1.496  0.00  0.00    +0.111 A 
ENDBRANCH  13  14
BRANCH   8  12
ATOM      1  O   UNL     1      -1.237   0.887  -0.251  0.00  0.00    -0.420 OA
ATOM      4  N   UNL     1      -2.099   2.747  -1.145  0.00  0.00    -0.112 NA
ATOM      5  N   UNL     1      -3.121   1.826  -1.008  0.00  0.00    -0.107 NA
ATOM     12  C   UNL     1      -1.019   2.156  -0.691  0.00  0.00    +0.222 A 
ATOM     15  C   UNL     1      -2.572   0.756  -0.483  0.00  0.00    +0.248 A 
BRANCH  15  18
ATOM      7  N   UNL     1      -4.278  -2.966   0.580  0.00  0.00    -0.263 NA
ATOM     18  C   UNL     1      -3.151  -0.506  -0.122  0.00  0.00    +0.041 A 
ATOM     20  C   UNL     1      -4.508  -0.734  -0.321  0.00  0.00    +0.033 A 
ATOM     21  C   UNL     1      -2.357  -1.506   0.427  0.00  0.00    +0.033 A 
ATOM     23  C   UNL     1      -5.018  -1.969   0.044  0.00  0.00    +0.111 A 
ATOM     24  C   UNL     1      -2.963  -2.708   0.758  0.00  0.00    +0.111 A 
ENDBRANCH  15  18
ENDBRANCH   8  12
TORSDOF 3
