REMARK  Name = 7144182
REMARK  4 active torsions:
REMARK  status: ('A' for Active; 'I' for Inactive)
REMARK    1  A    between atoms: O_7  and  C_30
REMARK    2  A    between atoms: O_7  and  C_34
REMARK    3  A    between atoms: C_17  and  C_22
REMARK    4  A    between atoms: C_19  and  C_23
REMARK                            x       y       z     vdW  Elec       q    Type
REMARK                         _______ _______ _______ _____ _____    ______ ____
ROOT
ATOM      5  O   UNL     1       3.964   2.418  -2.142  0.00  0.00    -0.268 OA
ATOM      6  O   UNL     1       4.311  -1.235   1.363  0.00  0.00    -0.270 OA
ATOM      8  N   UNL     1       2.384  -0.014   1.875  0.00  0.00    -0.297 N 
ATOM      9  N   UNL     1       2.307   2.026  -0.533  0.00  0.00    -0.311 N 
ATOM     10  C   UNL     1       2.735   2.441   1.962  0.00  0.00    +0.027 C 
ATOM     11  C   UNL     1       0.567   1.549   1.216  0.00  0.00    +0.054 C 
ATOM     12  C   UNL     1       1.230   2.656   2.035  0.00  0.00    +0.018 C 
ATOM     13  C   UNL     1       3.114   1.066   2.537  0.00  0.00    +0.113 C 
ATOM     14  C   UNL     1       3.177   2.596   0.506  0.00  0.00    +0.130 C 
ATOM     15  C   UNL     1       0.927   0.174   1.820  0.00  0.00    +0.117 C 
ATOM     16  C   UNL     1       0.992   1.602  -0.253  0.00  0.00    +0.034 A 
ATOM     17  C   UNL     1       0.170   1.229  -1.268  0.00  0.00    +0.002 A 
ATOM     18  C   UNL     1       2.830   2.046  -1.838  0.00  0.00    +0.252 A 
ATOM     19  C   UNL     1       3.092  -1.080   1.315  0.00  0.00    +0.247 C 
ATOM     20  C   UNL     1       0.677   1.233  -2.627  0.00  0.00    +0.015 A 
ATOM     21  C   UNL     1       1.925   1.596  -2.921  0.00  0.00    +0.071 A 
ENDROOT
BRANCH  19  23
ATOM      1  F   UNL     1       0.224  -4.996  -1.464  0.00  0.00    -0.205 F 
ATOM     23  C   UNL     1       2.338  -2.107   0.586  0.00  0.00    +0.037 A 
ATOM     26  C   UNL     1       2.118  -1.965  -0.781  0.00  0.00    +0.016 A 
ATOM     27  C   UNL     1       1.849  -3.220   1.265  0.00  0.00    +0.016 A 
ATOM     31  C   UNL     1       1.403  -2.942  -1.475  0.00  0.00    +0.039 A 
ATOM     32  C   UNL     1       1.134  -4.197   0.572  0.00  0.00    +0.039 A 
ATOM     33  C   UNL     1       0.911  -4.058  -0.798  0.00  0.00    +0.123 A 
ENDBRANCH  19  23
BRANCH  17  22
ATOM     22  C   UNL     1      -1.225   0.801  -1.024  0.00  0.00    -0.016 A 
ATOM     24  C   UNL     1      -1.502  -0.539  -0.772  0.00  0.00    +0.012 A 
ATOM     25  C   UNL     1      -2.250   1.742  -1.047  0.00  0.00    +0.012 A 
ATOM     28  C   UNL     1      -2.817  -0.943  -0.542  0.00  0.00    +0.046 A 
ATOM     29  C   UNL     1      -3.565   1.339  -0.817  0.00  0.00    +0.046 A 
ATOM     30  C   UNL     1      -3.849  -0.004  -0.564  0.00  0.00    +0.130 A 
BRANCH  30   7
ATOM      7  O   UNL     1      -5.132  -0.398  -0.340  0.00  0.00    -0.406 OA
BRANCH   7  34
ATOM      2  F   UNL     1      -4.978   0.492   1.762  0.00  0.00    -0.133 F 
ATOM      3  F   UNL     1      -6.705  -0.741   1.242  0.00  0.00    -0.133 F 
ATOM      4  F   UNL     1      -6.528   1.262   0.388  0.00  0.00    -0.133 F 
ATOM     34  C   UNL     1      -5.828   0.171   0.764  0.00  0.00    +0.575 C 
ENDBRANCH   7  34
ENDBRANCH  30   7
ENDBRANCH  17  22
TORSDOF 4
