REMARK  Name = 26743716
REMARK  10 active torsions:
REMARK  status: ('A' for Active; 'I' for Inactive)
REMARK    1  A    between atoms: O_4  and  C_13
REMARK    2  A    between atoms: O_6  and  C_31
REMARK    3  A    between atoms: O_6  and  C_32
REMARK    4  A    between atoms: N_7  and  C_15
REMARK    5  A    between atoms: N_10  and  C_23
REMARK    6  A    between atoms: N_10  and  C_27
REMARK    7  A    between atoms: N_10  and  C_28
REMARK    8  A    between atoms: C_11  and  C_16
REMARK    9  A    between atoms: C_15  and  C_17
REMARK   10  A    between atoms: C_20  and  C_24
REMARK                            x       y       z     vdW  Elec       q    Type
REMARK                         _______ _______ _______ _____ _____    ______ ____
ROOT
ATOM      7  N   UNL     1      -4.081  -0.005   0.636  0.00  0.00    -0.285 NA
ATOM     11  C   UNL     1      -3.858   0.834  -0.559  0.00  0.00    +0.149 C 
ATOM     12  C   UNL     1      -4.610   2.145  -0.264  0.00  0.00    +0.061 C 
ATOM     13  C   UNL     1      -5.260   1.930   1.097  0.00  0.00    +0.130 C 
ATOM     14  C   UNL     1      -5.356   0.420   1.209  0.00  0.00    +0.116 C 
ENDROOT
BRANCH  11  16
ATOM      5  O   UNL     1      -2.056   1.283  -2.148  0.00  0.00    -0.336 OA
ATOM      8  N   UNL     1      -1.370   1.057  -0.028  0.00  0.00    -0.190 NA
ATOM      9  N   UNL     1      -0.666   1.454  -2.168  0.00  0.00    -0.056 NA
ATOM     16  C   UNL     1      -2.388   1.054  -0.851  0.00  0.00    +0.245 A 
ATOM     20  C   UNL     1      -0.335   1.306  -0.882  0.00  0.00    +0.202 A 
BRANCH  20  24
ATOM     24  C   UNL     1       1.018   1.403  -0.418  0.00  0.00    +0.023 A 
ATOM     25  C   UNL     1       1.304   1.241   0.938  0.00  0.00    +0.015 A 
ATOM     26  C   UNL     1       2.049   1.660  -1.322  0.00  0.00    +0.015 A 
ATOM     29  C   UNL     1       2.621   1.337   1.389  0.00  0.00    +0.046 A 
ATOM     30  C   UNL     1       3.365   1.756  -0.871  0.00  0.00    +0.046 A 
ATOM     31  C   UNL     1       3.651   1.594   0.485  0.00  0.00    +0.130 A 
BRANCH  31   6
ATOM      6  O   UNL     1       4.936   1.687   0.924  0.00  0.00    -0.406 OA
BRANCH   6  32
ATOM      1  F   UNL     1       6.827   0.531   1.350  0.00  0.00    -0.133 F 
ATOM      2  F   UNL     1       5.319  -0.400   0.071  0.00  0.00    -0.133 F 
ATOM      3  F   UNL     1       6.524   1.296  -0.675  0.00  0.00    -0.133 F 
ATOM     32  C   UNL     1       5.895   0.776   0.401  0.00  0.00    +0.575 C 
ENDBRANCH   6  32
ENDBRANCH  31   6
ENDBRANCH  20  24
ENDBRANCH  11  16
BRANCH  13   4
ATOM      4  O   UNL     1      -6.534   2.542   1.146  0.00  0.00    -0.390 OA
ATOM     33  H   UNL     1      -6.407   3.494   0.992  0.00  0.00    +0.210 HD
ENDBRANCH  13   4
BRANCH   7  15
ATOM     15  C   UNL     1      -4.059  -1.433   0.347  0.00  0.00    +0.120 C 
BRANCH  15  17
ATOM     17  C   UNL     1      -2.654  -1.959   0.225  0.00  0.00    -0.033 A 
ATOM     18  C   UNL     1      -2.239  -2.574  -0.957  0.00  0.00    +0.007 A 
ATOM     19  C   UNL     1      -1.766  -1.832   1.293  0.00  0.00    +0.007 A 
ATOM     21  C   UNL     1      -0.937  -3.061  -1.071  0.00  0.00    +0.023 A 
ATOM     22  C   UNL     1      -0.464  -2.319   1.179  0.00  0.00    +0.023 A 
ATOM     23  C   UNL     1      -0.050  -2.934  -0.002  0.00  0.00    +0.029 A 
BRANCH  23  10
ATOM     10  N   UNL     1       1.267  -3.427  -0.117  0.00  0.00    -0.336 N 
ATOM     27  C   UNL     1       1.707  -4.067  -1.340  0.00  0.00    +0.129 C 
ATOM     28  C   UNL     1       2.200  -3.293   0.985  0.00  0.00    +0.129 C 
ENDBRANCH  23  10
ENDBRANCH  15  17
ENDBRANCH   7  15
TORSDOF 8
