REMARK  Name = 75536948
REMARK  5 active torsions:
REMARK  status: ('A' for Active; 'I' for Inactive)
REMARK    1  A    between atoms: O_2  and  C_6
REMARK    2  A    between atoms: O_3  and  C_16
REMARK    3  A    between atoms: O_3  and  C_17
REMARK    4  A    between atoms: N_4  and  C_8
REMARK    5  A    between atoms: C_8  and  C_11
REMARK                            x       y       z     vdW  Elec       q    Type
REMARK                         _______ _______ _______ _____ _____    ______ ____
ROOT
ATOM      1  O   UNL     1       3.379   1.810   0.715  0.00  0.00    -0.376 OA
ATOM      4  N   UNL     1       1.398  -0.517   0.090  0.00  0.00    -0.293 NA
ATOM      5  C   UNL     1       2.615  -1.092  -0.492  0.00  0.00    +0.118 C 
ATOM      6  C   UNL     1       3.920  -0.289  -0.364  0.00  0.00    +0.154 C 
ATOM      7  C   UNL     1       1.611   0.203   1.347  0.00  0.00    +0.113 C 
ATOM      9  C   UNL     1       3.749   1.216  -0.525  0.00  0.00    +0.192 C 
ATOM     10  C   UNL     1       2.009   1.651   1.058  0.00  0.00    +0.175 C 
ENDROOT
BRANCH   6   2
ATOM      2  O   UNL     1       4.820  -0.741  -1.376  0.00  0.00    -0.388 OA
ATOM     18  H   UNL     1       4.952  -1.696  -1.245  0.00  0.00    +0.210 HD
ENDBRANCH   6   2
BRANCH   4   8
ATOM      8  C   UNL     1       0.371  -1.550   0.232  0.00  0.00    +0.119 C 
BRANCH   8  11
ATOM     11  C   UNL     1      -1.018  -0.974   0.161  0.00  0.00    -0.033 A 
ATOM     12  C   UNL     1      -1.900  -1.145   1.228  0.00  0.00    +0.008 A 
ATOM     13  C   UNL     1      -1.423  -0.268  -0.972  0.00  0.00    +0.008 A 
ATOM     14  C   UNL     1      -3.187  -0.611   1.163  0.00  0.00    +0.046 A 
ATOM     15  C   UNL     1      -2.710   0.267  -1.037  0.00  0.00    +0.046 A 
ATOM     16  C   UNL     1      -3.592   0.095   0.030  0.00  0.00    +0.120 A 
BRANCH  16   3
ATOM      3  O   UNL     1      -4.847   0.617  -0.034  0.00  0.00    -0.495 OA
ATOM     17  C   UNL     1      -5.195   1.327  -1.222  0.00  0.00    +0.277 C 
ENDBRANCH  16   3
ENDBRANCH   8  11
ENDBRANCH   4   8
TORSDOF 4
