REMARK  Name = 75367666
REMARK  4 active torsions:
REMARK  status: ('A' for Active; 'I' for Inactive)
REMARK    1  A    between atoms: O_5  and  C_10
REMARK    2  A    between atoms: O_5  and  C_16
REMARK    3  A    between atoms: N_8  and  C_19
REMARK    4  A    between atoms: C_20  and  C_23
REMARK                            x       y       z     vdW  Elec       q    Type
REMARK                         _______ _______ _______ _____ _____    ______ ____
ROOT
ATOM      4  O   UNL     1       1.170   4.115   0.567  0.00  0.00    -0.375 OA
ATOM      6  O   UNL     1       4.344   0.917   0.011  0.00  0.00    -0.252 OA
ATOM      7  N   UNL     1       2.432   1.893  -0.851  0.00  0.00    -0.280 N 
ATOM      8  N   UNL     1       2.533  -0.440  -0.515  0.00  0.00    -0.268 N 
ATOM     10  C   UNL     1       0.042   2.036  -0.118  0.00  0.00    +0.216 C 
ATOM     11  C   UNL     1       1.025   1.852  -1.275  0.00  0.00    +0.156 C 
ATOM     12  C   UNL     1       3.017   3.235  -0.778  0.00  0.00    +0.137 C 
ATOM     13  C   UNL     1       0.515   2.936   1.024  0.00  0.00    +0.206 C 
ATOM     14  C   UNL     1       2.589   3.970   0.486  0.00  0.00    +0.179 C 
ATOM     15  C   UNL     1       3.197   0.783  -0.422  0.00  0.00    +0.307 C 
ATOM     28  H   UNL     1       1.574  -0.453  -0.841  0.00  0.00    +0.156 HD
ENDROOT
BRANCH   8  19
ATOM      9  N   UNL     1       4.840  -3.075   0.686  0.00  0.00    -0.261 NA
ATOM     19  C   UNL     1       3.027  -1.722  -0.167  0.00  0.00    +0.053 A 
ATOM     24  C   UNL     1       2.240  -2.858  -0.317  0.00  0.00    +0.026 A 
ATOM     25  C   UNL     1       4.308  -1.883   0.335  0.00  0.00    +0.134 A 
ATOM     26  C   UNL     1       2.751  -4.103   0.034  0.00  0.00    +0.021 A 
ATOM     27  C   UNL     1       4.045  -4.157   0.526  0.00  0.00    +0.111 A 
ENDBRANCH   8  19
BRANCH  10   5
ATOM      5  O   UNL     1      -0.292   0.756   0.416  0.00  0.00    -0.485 OA
BRANCH   5  16
ATOM     16  C   UNL     1      -1.595   0.360   0.288  0.00  0.00    +0.121 A 
ATOM     17  C   UNL     1      -2.615   1.119   0.862  0.00  0.00    +0.046 A 
ATOM     18  C   UNL     1      -1.905  -0.804  -0.416  0.00  0.00    +0.046 A 
ATOM     20  C   UNL     1      -4.253  -0.449   0.028  0.00  0.00    +0.055 A 
ATOM     21  C   UNL     1      -3.943   0.715   0.732  0.00  0.00    +0.016 A 
ATOM     22  C   UNL     1      -3.233  -1.208  -0.546  0.00  0.00    +0.016 A 
BRANCH  20  23
ATOM      1  F   UNL     1      -5.925  -2.114   0.422  0.00  0.00    -0.166 F 
ATOM      2  F   UNL     1      -6.097  -0.961  -1.407  0.00  0.00    -0.166 F 
ATOM      3  F   UNL     1      -6.544  -0.031   0.506  0.00  0.00    -0.166 F 
ATOM     23  C   UNL     1      -5.673  -0.881  -0.111  0.00  0.00    +0.417 C 
ENDBRANCH  20  23
ENDBRANCH   5  16
ENDBRANCH  10   5
TORSDOF 4
