REMARK  Name = 51137858
REMARK  7 active torsions:
REMARK  status: ('A' for Active; 'I' for Inactive)
REMARK    1  A    between atoms: O_4  and  C_20
REMARK    2  A    between atoms: O_4  and  C_28
REMARK    3  A    between atoms: O_5  and  C_22
REMARK    4  A    between atoms: O_5  and  C_29
REMARK    5  A    between atoms: C_9  and  C_13
REMARK    6  A    between atoms: C_14  and  C_15
REMARK    7  A    between atoms: C_16  and  C_19
REMARK                            x       y       z     vdW  Elec       q    Type
REMARK                         _______ _______ _______ _____ _____    ______ ____
ROOT
ATOM      3  O   UNL     1       1.782   1.239   2.845  0.00  0.00    -0.270 OA
ATOM      6  N   UNL     1       1.060   2.253   0.884  0.00  0.00    -0.297 N 
ATOM      9  C   UNL     1      -0.267   3.226  -0.834  0.00  0.00    +0.095 C 
ATOM     10  C   UNL     1      -0.285   4.132   0.407  0.00  0.00    +0.033 C 
ATOM     11  C   UNL     1       0.969   2.354  -0.573  0.00  0.00    +0.121 C 
ATOM     12  C   UNL     1       0.188   3.221   1.532  0.00  0.00    +0.109 C 
ATOM     14  C   UNL     1       1.792   1.333   1.619  0.00  0.00    +0.247 C 
ENDROOT
BRANCH  14  15
ATOM     15  C   UNL     1       2.635   0.385   0.875  0.00  0.00    +0.041 A 
ATOM     17  C   UNL     1       2.112  -0.842   0.467  0.00  0.00    +0.062 A 
ATOM     18  C   UNL     1       3.957   0.713   0.577  0.00  0.00    +0.017 A 
ATOM     20  C   UNL     1       2.912  -1.741  -0.239  0.00  0.00    +0.162 A 
ATOM     21  C   UNL     1       4.757  -0.185  -0.129  0.00  0.00    +0.050 A 
ATOM     22  C   UNL     1       4.234  -1.412  -0.537  0.00  0.00    +0.162 A 
BRANCH  20   4
ATOM      4  O   UNL     1       2.390  -2.936  -0.632  0.00  0.00    -0.491 OA
ATOM     28  C   UNL     1       1.030  -3.194  -0.287  0.00  0.00    +0.277 C 
ENDBRANCH  20   4
BRANCH  22   5
ATOM      5  O   UNL     1       5.025  -2.282  -1.226  0.00  0.00    -0.491 OA
ATOM     29  C   UNL     1       6.365  -1.869  -1.489  0.00  0.00    +0.277 C 
ENDBRANCH  22   5
ENDBRANCH  14  15
BRANCH   9  13
ATOM      2  O   UNL     1      -1.704   1.279  -0.419  0.00  0.00    -0.420 OA
ATOM      7  N   UNL     1      -2.662   2.865  -1.672  0.00  0.00    -0.112 NA
ATOM      8  N   UNL     1      -3.572   1.835  -1.517  0.00  0.00    -0.107 NA
ATOM     13  C   UNL     1      -1.587   2.497  -1.015  0.00  0.00    +0.222 A 
ATOM     16  C   UNL     1      -2.970   0.932  -0.780  0.00  0.00    +0.248 A 
BRANCH  16  19
ATOM      1 CL   UNL     1      -4.883  -4.340   1.192  0.00  0.00    -0.084 Cl
ATOM     19  C   UNL     1      -3.431  -0.340  -0.304  0.00  0.00    +0.039 A 
ATOM     23  C   UNL     1      -4.716  -0.779  -0.623  0.00  0.00    +0.014 A 
ATOM     24  C   UNL     1      -2.595  -1.138   0.477  0.00  0.00    +0.014 A 
ATOM     25  C   UNL     1      -5.165  -2.016  -0.160  0.00  0.00    +0.021 A 
ATOM     26  C   UNL     1      -3.044  -2.375   0.940  0.00  0.00    +0.021 A 
ATOM     27  C   UNL     1      -4.329  -2.814   0.621  0.00  0.00    +0.041 A 
ENDBRANCH  16  19
ENDBRANCH   9  13
TORSDOF 5
