REMARK  Name = 40777592
REMARK  9 active torsions:
REMARK  status: ('A' for Active; 'I' for Inactive)
REMARK    1  A    between atoms: O_4  and  C_32
REMARK    2  A    between atoms: O_4  and  C_33
REMARK    3  A    between atoms: N_5  and  C_12
REMARK    4  A    between atoms: N_6  and  C_20
REMARK    5  A    between atoms: N_8  and  C_26
REMARK    6  A    between atoms: N_9  and  C_22
REMARK    7  A    between atoms: C_10  and  C_13
REMARK    8  A    between atoms: C_16  and  C_18
REMARK    9  A    between atoms: C_17  and  C_19
REMARK                            x       y       z     vdW  Elec       q    Type
REMARK                         _______ _______ _______ _____ _____    ______ ____
ROOT
ATOM     10  C   UNL     1       0.670   1.062   0.241  0.00  0.00    +0.047 C 
ATOM     11  C   UNL     1      -0.277  -0.156   0.225  0.00  0.00    +0.039 C 
ATOM     12  C   UNL     1      -1.206   0.018   1.432  0.00  0.00    +0.098 C 
ATOM     14  C   UNL     1       0.593   1.509   1.672  0.00  0.00    -0.021 C 
ATOM     15  C   UNL     1      -0.432   0.941   2.315  0.00  0.00    -0.009 C 
ENDROOT
BRANCH  10  13
ATOM      6  N   UNL     1       4.059  -0.107  -0.512  0.00  0.00    -0.234 N 
ATOM      7  N   UNL     1       3.979   0.812  -1.490  0.00  0.00    -0.171 NA
ATOM     13  C   UNL     1       2.064   0.742  -0.247  0.00  0.00    +0.003 A 
ATOM     16  C   UNL     1       2.938  -0.188   0.261  0.00  0.00    +0.046 A 
ATOM     17  C   UNL     1       2.758   1.327  -1.323  0.00  0.00    +0.064 A 
ATOM     18  C   UNL     1       2.800  -1.127   1.392  0.00  0.00    +0.066 C 
ATOM     19  C   UNL     1       2.290   2.390  -2.229  0.00  0.00    +0.068 C 
BRANCH   6  20
ATOM     20  C   UNL     1       5.221  -0.866  -0.369  0.00  0.00    +0.096 A 
ATOM     22  C   UNL     1       6.455  -0.264  -0.124  0.00  0.00    +0.151 A 
ATOM     23  C   UNL     1       5.131  -2.254  -0.478  0.00  0.00    +0.030 A 
ATOM     24  C   UNL     1       7.599  -1.050   0.012  0.00  0.00    +0.035 A 
ATOM     25  C   UNL     1       6.276  -3.039  -0.343  0.00  0.00    +0.002 A 
ATOM     27  C   UNL     1       7.510  -2.438  -0.097  0.00  0.00    +0.002 A 
BRANCH  22   9
ATOM      2  O   UNL     1       6.812   1.822  -1.040  0.00  0.00    -0.126 OA
ATOM      3  O   UNL     1       6.454   1.677   1.121  0.00  0.00    -0.126 OA
ATOM      9  N   UNL     1       6.580   1.150  -0.008  0.00  0.00    +0.059 N 
ENDBRANCH  22   9
ENDBRANCH   6  20
ENDBRANCH  10  13
BRANCH  12   5
ATOM      1  O   UNL     1      -3.648  -1.321   0.761  0.00  0.00    -0.252 OA
ATOM      5  N   UNL     1      -2.458   0.636   1.086  0.00  0.00    -0.293 N 
ATOM      8  N   UNL     1      -4.673   0.772   0.475  0.00  0.00    -0.269 N 
ATOM     21  C   UNL     1      -3.614  -0.092   0.768  0.00  0.00    +0.304 C 
ATOM     34  H   UNL     1      -2.502   1.649   1.021  0.00  0.00    +0.151 HD
ATOM     35  H   UNL     1      -4.477   1.768   0.528  0.00  0.00    +0.156 HD
BRANCH   8  26
ATOM     26  C   UNL     1      -5.996   0.431   0.111  0.00  0.00    +0.035 A 
ATOM     28  C   UNL     1      -6.929   1.436  -0.149  0.00  0.00    +0.027 A 
ATOM     29  C   UNL     1      -6.369  -0.909   0.011  0.00  0.00    +0.027 A 
ATOM     30  C   UNL     1      -8.234   1.100  -0.509  0.00  0.00    +0.047 A 
ATOM     31  C   UNL     1      -7.674  -1.245  -0.349  0.00  0.00    +0.047 A 
ATOM     32  C   UNL     1      -8.607  -0.241  -0.609  0.00  0.00    +0.120 A 
BRANCH  32   4
ATOM      4  O   UNL     1      -9.880  -0.568  -0.961  0.00  0.00    -0.495 OA
ATOM     33  C   UNL     1     -10.194  -1.958  -1.045  0.00  0.00    +0.277 C 
ENDBRANCH  32   4
ENDBRANCH   8  26
ENDBRANCH  12   5
TORSDOF 6
