REMARK  Name = 25339530
REMARK  13 active torsions:
REMARK  status: ('A' for Active; 'I' for Inactive)
REMARK    1  A    between atoms: O_1  and  C_14
REMARK    2  A    between atoms: N_4  and  C_10
REMARK    3  A    between atoms: N_4  and  C_21
REMARK    4  A    between atoms: N_5  and  C_29
REMARK    5  A    between atoms: N_6  and  C_30
REMARK    6  A    between atoms: C_7  and  C_15
REMARK    7  A    between atoms: C_9  and  C_17
REMARK    8  A    between atoms: C_9  and  C_18
REMARK    9  A    between atoms: C_14  and  C_20
REMARK   10  A    between atoms: C_15  and  C_19
REMARK   11  A    between atoms: C_19  and  C_23
REMARK   12  A    between atoms: C_21  and  C_22
REMARK   13  A    between atoms: C_29  and  C_30
REMARK                            x       y       z     vdW  Elec       q    Type
REMARK                         _______ _______ _______ _____ _____    ______ ____
ROOT
ATOM      7  C   UNL     1       1.518   1.224   0.220  0.00  0.00    -0.010 C 
ATOM      8  C   UNL     1       1.543   2.499  -0.688  0.00  0.00    +0.005 C 
ATOM      9  C   UNL     1       2.128   2.008  -2.072  0.00  0.00    -0.030 C 
ATOM     10  C   UNL     1       2.836   0.543  -0.220  0.00  0.00    +0.061 C 
ATOM     11  C   UNL     1       2.818   0.653  -1.752  0.00  0.00    +0.026 C 
ATOM     12  C   UNL     1       1.441   1.527   1.735  0.00  0.00    +0.011 C 
ATOM     13  C   UNL     1       2.362   3.663  -0.076  0.00  0.00    +0.039 C 
ATOM     14  C   UNL     1       2.043   3.950   1.392  0.00  0.00    +0.064 C 
ATOM     16  C   UNL     1       2.303   2.687   2.215  0.00  0.00    +0.035 C 
ATOM     17  C   UNL     1       0.992   1.818  -3.099  0.00  0.00    +0.011 C 
ATOM     18  C   UNL     1       3.146   2.957  -2.736  0.00  0.00    +0.011 C 
ATOM     20  C   UNL     1       2.892   5.113   1.908  0.00  0.00    +0.041 C 
ENDROOT
BRANCH  14   1
ATOM      1  O   UNL     1       0.670   4.329   1.495  0.00  0.00    -0.389 OA
ATOM     36  H   UNL     1       0.533   5.117   0.943  0.00  0.00    +0.210 HD
ENDBRANCH  14   1
BRANCH  10   4
ATOM      4  N   UNL     1       3.007  -0.835   0.220  0.00  0.00    -0.312 NA
ATOM     35  H   UNL     1       2.691  -0.936   1.184  0.00  0.00    +0.122 HD
BRANCH   4  21
ATOM     21  C   UNL     1       4.405  -1.237   0.139  0.00  0.00    +0.084 C 
BRANCH  21  22
ATOM     22  C   UNL     1       4.589  -2.685   0.590  0.00  0.00    +0.003 C 
ATOM     24  C   UNL     1       3.790  -3.639  -0.308  0.00  0.00    +0.005 C 
ATOM     25  C   UNL     1       6.077  -3.063   0.602  0.00  0.00    +0.005 C 
ATOM     26  C   UNL     1       4.001  -5.097   0.090  0.00  0.00    +0.000 C 
ATOM     27  C   UNL     1       6.284  -4.523   0.999  0.00  0.00    +0.000 C 
ATOM     28  C   UNL     1       5.481  -5.467   0.109  0.00  0.00    +0.000 C 
ENDBRANCH  21  22
ENDBRANCH   4  21
ENDBRANCH  10   4
BRANCH   7  15
ATOM     15  C   UNL     1       0.289   0.327  -0.087  0.00  0.00    +0.018 C 
BRANCH  15  19
ATOM     19  C   UNL     1      -0.968   1.168  -0.179  0.00  0.00    +0.096 C 
BRANCH  19  23
ATOM      2  O   UNL     1      -2.129  -0.905  -0.645  0.00  0.00    -0.276 OA
ATOM      5  N   UNL     1      -3.337   1.076  -0.576  0.00  0.00    -0.314 N 
ATOM     23  C   UNL     1      -2.183   0.312  -0.490  0.00  0.00    +0.213 C 
ATOM     37  H   UNL     1      -3.288   2.079  -0.425  0.00  0.00    +0.149 HD
BRANCH   5  29
ATOM     29  C   UNL     1      -4.627   0.494  -0.864  0.00  0.00    +0.119 C 
BRANCH  29  30
ATOM     30  C   UNL     1      -5.345   0.086   0.414  0.00  0.00    +0.103 C 
BRANCH  30   6
ATOM      3  O   UNL     1      -8.673  -2.470   0.460  0.00  0.00    -0.377 OA
ATOM      6  N   UNL     1      -6.642  -0.509   0.099  0.00  0.00    -0.297 NA
ATOM     31  C   UNL     1      -7.521  -0.498   1.277  0.00  0.00    +0.112 C 
ATOM     32  C   UNL     1      -6.480  -1.883  -0.394  0.00  0.00    +0.112 C 
ATOM     33  C   UNL     1      -8.863  -1.135   0.929  0.00  0.00    +0.175 C 
ATOM     34  C   UNL     1      -7.847  -2.487  -0.704  0.00  0.00    +0.175 C 
ENDBRANCH  30   6
ENDBRANCH  29  30
ENDBRANCH   5  29
ENDBRANCH  19  23
ENDBRANCH  15  19
ENDBRANCH   7  15
TORSDOF 10
