REMARK  Name = 7155536
REMARK  4 active torsions:
REMARK  status: ('A' for Active; 'I' for Inactive)
REMARK    1  A    between atoms: N_6  and  C_19
REMARK    2  A    between atoms: N_7  and  C_23
REMARK    3  A    between atoms: C_18  and  C_21
REMARK    4  A    between atoms: C_26  and  C_29
REMARK                            x       y       z     vdW  Elec       q    Type
REMARK                         _______ _______ _______ _____ _____    ______ ____
ROOT
ATOM      1  O   UNL     1      -1.067   1.895   1.534  0.00  0.00    -0.266 OA
ATOM      2  O   UNL     1      -3.991  -1.960   2.368  0.00  0.00    -0.276 OA
ATOM      4  N   UNL     1      -4.995  -1.055   0.478  0.00  0.00    -0.301 N 
ATOM      5  N   UNL     1      -2.740   1.175   0.069  0.00  0.00    -0.310 N 
ATOM      9  C   UNL     1      -5.235   1.429   0.584  0.00  0.00    +0.027 C 
ATOM     10  C   UNL     1      -4.524   0.361  -1.514  0.00  0.00    +0.054 C 
ATOM     11  C   UNL     1      -5.401   1.467  -0.930  0.00  0.00    +0.018 C 
ATOM     12  C   UNL     1      -5.670   0.062   1.140  0.00  0.00    +0.113 C 
ATOM     13  C   UNL     1      -3.778   1.755   0.932  0.00  0.00    +0.130 C 
ATOM     14  C   UNL     1      -5.003  -1.008  -0.992  0.00  0.00    +0.117 C 
ATOM     15  C   UNL     1      -3.066   0.569  -1.148  0.00  0.00    +0.027 A 
ATOM     16  C   UNL     1      -2.094   0.149  -1.976  0.00  0.00    +0.024 A 
ATOM     17  C   UNL     1      -1.404   1.352   0.480  0.00  0.00    +0.273 A 
ATOM     18  C   UNL     1      -4.480  -2.101   1.244  0.00  0.00    +0.212 C 
ATOM     19  C   UNL     1      -0.351   0.848  -0.459  0.00  0.00    +0.100 A 
ATOM     20  C   UNL     1      -0.711   0.292  -1.620  0.00  0.00    +0.030 A 
ATOM     21  C   UNL     1      -4.530  -3.477   0.631  0.00  0.00    +0.109 C 
ENDROOT
BRANCH  19   6
ATOM      3  O   UNL     1       1.794  -0.861  -1.210  0.00  0.00    -0.252 OA
ATOM      6  N   UNL     1       0.955   0.989  -0.091  0.00  0.00    -0.265 N 
ATOM      7  N   UNL     1       3.199   0.533   0.052  0.00  0.00    -0.269 N 
ATOM     22  C   UNL     1       1.978   0.118  -0.489  0.00  0.00    +0.308 C 
ATOM     30  H   UNL     1       1.148   1.602   0.695  0.00  0.00    +0.157 HD
ATOM     31  H   UNL     1       3.180   1.370   0.629  0.00  0.00    +0.156 HD
BRANCH   7  23
ATOM     23  C   UNL     1       4.469  -0.070  -0.107  0.00  0.00    +0.036 A 
ATOM     24  C   UNL     1       5.571   0.496   0.514  0.00  0.00    +0.042 A 
ATOM     25  C   UNL     1       4.585  -1.212  -0.881  0.00  0.00    +0.023 A 
ATOM     26  C   UNL     1       6.823  -0.098   0.356  0.00  0.00    +0.054 A 
ATOM     27  C   UNL     1       5.837  -1.806  -1.039  0.00  0.00    +0.003 A 
ATOM     28  C   UNL     1       6.956  -1.249  -0.420  0.00  0.00    +0.019 A 
BRANCH  26  29
ATOM      8  N   UNL     1       8.903   0.936   1.505  0.00  0.00    -0.191 NA
ATOM     29  C   UNL     1       7.970   0.472   0.990  0.00  0.00    +0.099 C 
ENDBRANCH  26  29
ENDBRANCH   7  23
ENDBRANCH  19   6
TORSDOF 3
