REMARK  Name = 7144200
REMARK  6 active torsions:
REMARK  status: ('A' for Active; 'I' for Inactive)
REMARK    1  A    between atoms: O_6  and  C_29
REMARK    2  A    between atoms: O_6  and  C_35
REMARK    3  A    between atoms: O_7  and  C_30
REMARK    4  A    between atoms: O_7  and  C_36
REMARK    5  A    between atoms: N_10  and  C_26
REMARK    6  A    between atoms: C_18  and  C_23
REMARK                            x       y       z     vdW  Elec       q    Type
REMARK                         _______ _______ _______ _____ _____    ______ ____
ROOT
ATOM      4  O   UNL     1      -3.454  -2.576  -2.306  0.00  0.00    -0.268 OA
ATOM      5  O   UNL     1      -3.846  -0.231   1.984  0.00  0.00    -0.252 OA
ATOM      8  N   UNL     1      -1.685  -2.390  -0.783  0.00  0.00    -0.311 N 
ATOM      9  N   UNL     1      -1.725  -1.149   2.107  0.00  0.00    -0.284 N 
ATOM     10  N   UNL     1      -2.039   1.041   1.287  0.00  0.00    -0.266 N 
ATOM     11  C   UNL     1      -1.754  -3.558   1.496  0.00  0.00    +0.027 C 
ATOM     12  C   UNL     1       0.181  -2.162   0.892  0.00  0.00    +0.054 C 
ATOM     13  C   UNL     1      -0.236  -3.548   1.384  0.00  0.00    +0.018 C 
ATOM     14  C   UNL     1      -2.337  -3.372   0.095  0.00  0.00    +0.130 C 
ATOM     15  C   UNL     1      -2.237  -2.471   2.474  0.00  0.00    +0.114 C 
ATOM     16  C   UNL     1      -0.265  -1.103   1.926  0.00  0.00    +0.119 C 
ATOM     17  C   UNL     1      -0.420  -1.844  -0.482  0.00  0.00    +0.034 A 
ATOM     18  C   UNL     1       0.199  -1.037  -1.383  0.00  0.00    +0.002 A 
ATOM     19  C   UNL     1      -2.358  -2.115  -1.987  0.00  0.00    +0.252 A 
ATOM     20  C   UNL     1      -2.632  -0.110   1.802  0.00  0.00    +0.307 C 
ATOM     21  C   UNL     1      -0.468  -0.729  -2.634  0.00  0.00    +0.015 A 
ATOM     22  C   UNL     1      -1.673  -1.211  -2.937  0.00  0.00    +0.071 A 
ATOM     37  H   UNL     1      -1.083   1.255   1.546  0.00  0.00    +0.156 HD
ENDROOT
BRANCH  18  23
ATOM     23  C   UNL     1       1.524  -0.437  -1.113  0.00  0.00    -0.016 A 
ATOM     24  C   UNL     1       1.607   0.793  -0.467  0.00  0.00    +0.012 A 
ATOM     25  C   UNL     1       2.679  -1.107  -1.507  0.00  0.00    +0.012 A 
ATOM     27  C   UNL     1       2.857   1.358  -0.213  0.00  0.00    +0.046 A 
ATOM     28  C   UNL     1       3.928  -0.541  -1.253  0.00  0.00    +0.046 A 
ATOM     29  C   UNL     1       4.017   0.691  -0.606  0.00  0.00    +0.130 A 
BRANCH  29   6
ATOM      6  O   UNL     1       5.236   1.244  -0.358  0.00  0.00    -0.406 OA
BRANCH   6  35
ATOM      1  F   UNL     1       6.921   1.398   1.136  0.00  0.00    -0.133 F 
ATOM      2  F   UNL     1       5.500  -0.248   1.355  0.00  0.00    -0.133 F 
ATOM      3  F   UNL     1       6.967  -0.250  -0.298  0.00  0.00    -0.133 F 
ATOM     35  C   UNL     1       6.152   0.518   0.455  0.00  0.00    +0.575 C 
ENDBRANCH   6  35
ENDBRANCH  29   6
ENDBRANCH  18  23
BRANCH  10  26
ATOM     26  C   UNL     1      -2.639   2.007   0.444  0.00  0.00    +0.077 A 
ATOM     30  C   UNL     1      -1.940   3.154   0.073  0.00  0.00    +0.141 A 
ATOM     31  C   UNL     1      -3.938   1.798  -0.012  0.00  0.00    +0.027 A 
ATOM     32  C   UNL     1      -2.545   4.096  -0.759  0.00  0.00    +0.047 A 
ATOM     33  C   UNL     1      -4.543   2.741  -0.844  0.00  0.00    +0.002 A 
ATOM     34  C   UNL     1      -3.846   3.890  -1.217  0.00  0.00    +0.004 A 
BRANCH  30   7
ATOM      7  O   UNL     1      -0.668   3.375   0.511  0.00  0.00    -0.493 OA
ATOM     36  C   UNL     1      -0.521   4.087   1.737  0.00  0.00    +0.277 C 
ENDBRANCH  30   7
ENDBRANCH  10  26
TORSDOF 5
