REMARK  Name = 11885041
REMARK  15 active torsions:
REMARK  status: ('A' for Active; 'I' for Inactive)
REMARK    1  A    between atoms: O_2  and  C_16
REMARK    2  A    between atoms: O_3  and  C_21
REMARK    3  A    between atoms: N_8  and  C_27
REMARK    4  A    between atoms: N_10  and  C_29
REMARK    5  A    between atoms: C_11  and  C_19
REMARK    6  A    between atoms: C_13  and  C_21
REMARK    7  A    between atoms: C_13  and  C_22
REMARK    8  A    between atoms: C_14  and  C_24
REMARK    9  A    between atoms: C_24  and  C_25
REMARK   10  A    between atoms: C_27  and  C_29
REMARK   11  A    between atoms: C_28  and  C_30
REMARK   12  A    between atoms: C_30  and  C_31
REMARK   13  A    between atoms: C_31  and  C_34
REMARK   14  A    between atoms: C_31  and  C_35
REMARK   15  A    between atoms: C_31  and  C_36
REMARK                            x       y       z     vdW  Elec       q    Type
REMARK                         _______ _______ _______ _____ _____    ______ ____
ROOT
ATOM      1  S   UNL     1      -1.384   3.158  -0.640  0.00  0.00    -0.057 S 
ATOM      5  O   UNL     1       2.894   1.323  -0.424  0.00  0.00    -0.275 OA
ATOM      7  N   UNL     1      -0.047   0.972  -0.287  0.00  0.00    -0.229 NA
ATOM      9  N   UNL     1       1.232   2.978  -0.672  0.00  0.00    -0.265 N 
ATOM     11  C   UNL     1      -3.384  -0.786   0.516  0.00  0.00    -0.019 C 
ATOM     12  C   UNL     1      -4.210   0.170  -0.453  0.00  0.00    +0.011 C 
ATOM     13  C   UNL     1      -5.778  -0.002  -0.461  0.00  0.00    +0.021 C 
ATOM     14  C   UNL     1      -1.855  -0.754   0.052  0.00  0.00    +0.054 C 
ATOM     15  C   UNL     1      -3.907  -2.239   0.376  0.00  0.00    +0.010 C 
ATOM     16  C   UNL     1      -6.127  -1.515  -0.559  0.00  0.00    +0.123 C 
ATOM     17  C   UNL     1      -3.743   1.649  -0.327  0.00  0.00    +0.049 C 
ATOM     18  C   UNL     1      -5.419  -2.364   0.491  0.00  0.00    +0.032 C 
ATOM     19  C   UNL     1      -3.479  -0.364   2.003  0.00  0.00    +0.012 C 
ATOM     20  C   UNL     1      -1.390   0.659  -0.187  0.00  0.00    +0.058 A 
ATOM     22  C   UNL     1      -6.358   0.689  -1.728  0.00  0.00    +0.016 C 
ATOM     23  C   UNL     1      -2.254   1.719  -0.372  0.00  0.00    +0.015 A 
ATOM     26  C   UNL     1       0.075   2.261  -0.517  0.00  0.00    +0.165 A 
ATOM     28  C   UNL     1       2.546   2.484  -0.619  0.00  0.00    +0.219 C 
ATOM     42  H   UNL     1       1.099   3.972  -0.841  0.00  0.00    +0.157 HD
ENDROOT
BRANCH  16   2
ATOM      2  O   UNL     1      -7.535  -1.715  -0.439  0.00  0.00    -0.391 OA
ATOM     39  H   UNL     1      -7.708  -2.665  -0.552  0.00  0.00    +0.210 HD
ENDBRANCH  16   2
BRANCH  13  21
ATOM     21  C   UNL     1      -6.501   0.653   0.737  0.00  0.00    +0.165 C 
BRANCH  21   3
ATOM      3  O   UNL     1      -7.884   0.425   0.583  0.00  0.00    -0.394 OA
ATOM     40  H   UNL     1      -8.333   0.848   1.335  0.00  0.00    +0.209 HD
ENDBRANCH  21   3
ENDBRANCH  13  21
BRANCH  14  24
ATOM     24  C   UNL     1      -0.892  -1.514   0.975  0.00  0.00    +0.106 C 
BRANCH  24  25
ATOM      4  O   UNL     1       0.525  -1.821  -0.962  0.00  0.00    -0.276 OA
ATOM      8  N   UNL     1       1.192  -2.674   1.094  0.00  0.00    -0.314 N 
ATOM     25  C   UNL     1       0.333  -2.002   0.238  0.00  0.00    +0.214 C 
ATOM     41  H   UNL     1       0.946  -2.764   2.076  0.00  0.00    +0.149 HD
BRANCH   8  27
ATOM     27  C   UNL     1       2.444  -3.254   0.663  0.00  0.00    +0.119 C 
BRANCH  27  29
ATOM     29  C   UNL     1       3.586  -2.256   0.789  0.00  0.00    +0.103 C 
BRANCH  29  10
ATOM      6  O   UNL     1       7.312  -2.784  -1.069  0.00  0.00    -0.377 OA
ATOM     10  N   UNL     1       4.839  -2.858   0.338  0.00  0.00    -0.297 NA
ATOM     32  C   UNL     1       4.890  -2.920  -1.129  0.00  0.00    +0.112 C 
ATOM     33  C   UNL     1       5.993  -2.107   0.852  0.00  0.00    +0.112 C 
ATOM     37  C   UNL     1       6.211  -3.541  -1.575  0.00  0.00    +0.175 C 
ATOM     38  C   UNL     1       7.288  -2.746   0.359  0.00  0.00    +0.175 C 
ENDBRANCH  29  10
ENDBRANCH  27  29
ENDBRANCH   8  27
ENDBRANCH  24  25
ENDBRANCH  14  24
BRANCH  28  30
ATOM     30  C   UNL     1       3.593   3.571  -0.830  0.00  0.00    +0.102 C 
BRANCH  30  31
ATOM     31  C   UNL     1       4.143   4.203   0.471  0.00  0.00    -0.029 C 
ATOM     34  C   UNL     1       4.783   3.137   1.376  0.00  0.00    +0.011 C 
ATOM     35  C   UNL     1       5.227   5.227   0.083  0.00  0.00    +0.011 C 
ATOM     36  C   UNL     1       3.041   4.936   1.253  0.00  0.00    +0.011 C 
ENDBRANCH  30  31
ENDBRANCH  28  30
TORSDOF 10
