REMARK  Name = 51137242
REMARK  4 active torsions:
REMARK  status: ('A' for Active; 'I' for Inactive)
REMARK    1  A    between atoms: N_3  and  C_11
REMARK    2  A    between atoms: C_7  and  C_12
REMARK    3  A    between atoms: C_11  and  C_13
REMARK    4  A    between atoms: C_17  and  C_21
REMARK                            x       y       z     vdW  Elec       q    Type
REMARK                         _______ _______ _______ _____ _____    ______ ____
ROOT
ATOM      3  N   UNL     1      -1.670  -0.279   0.094  0.00  0.00    -0.297 NA
ATOM      7  C   UNL     1       0.145  -1.703   0.515  0.00  0.00    +0.092 C 
ATOM      8  C   UNL     1      -0.545  -0.908  -0.602  0.00  0.00    +0.097 C 
ATOM      9  C   UNL     1      -0.251  -0.976   1.812  0.00  0.00    +0.029 C 
ATOM     10  C   UNL     1      -1.112   0.196   1.360  0.00  0.00    +0.085 C 
ENDROOT
BRANCH   7  12
ATOM      2  O   UNL     1       2.362  -0.703   0.229  0.00  0.00    -0.420 OA
ATOM      4  N   UNL     1       2.355  -2.939   0.164  0.00  0.00    -0.112 NA
ATOM      6  N   UNL     1       3.658  -2.511  -0.009  0.00  0.00    -0.107 NA
ATOM     12  C   UNL     1       1.634  -1.851   0.299  0.00  0.00    +0.222 A 
ATOM     17  C   UNL     1       3.615  -1.200   0.036  0.00  0.00    +0.248 A 
BRANCH  17  21
ATOM      1 CL   UNL     1       7.962   2.823  -0.464  0.00  0.00    -0.084 Cl
ATOM     21  C   UNL     1       4.663  -0.230  -0.085  0.00  0.00    +0.039 A 
ATOM     23  C   UNL     1       5.979  -0.646  -0.284  0.00  0.00    +0.014 A 
ATOM     24  C   UNL     1       4.367   1.131  -0.003  0.00  0.00    +0.014 A 
ATOM     25  C   UNL     1       7.000   0.298  -0.401  0.00  0.00    +0.021 A 
ATOM     26  C   UNL     1       5.387   2.075  -0.120  0.00  0.00    +0.021 A 
ATOM     27  C   UNL     1       6.703   1.659  -0.320  0.00  0.00    +0.041 A 
ENDBRANCH  17  21
ENDBRANCH   7  12
BRANCH   3  11
ATOM     11  C   UNL     1      -2.273   0.793  -0.683  0.00  0.00    +0.121 C 
BRANCH  11  13
ATOM      5  N   UNL     1      -5.335   2.185   0.809  0.00  0.00    -0.360 N 
ATOM     13  C   UNL     1      -3.654   1.135  -0.190  0.00  0.00    -0.008 A 
ATOM     14  C   UNL     1      -4.844   0.388  -0.418  0.00  0.00    +0.004 A 
ATOM     15  C   UNL     1      -3.989   2.233   0.568  0.00  0.00    +0.088 A 
ATOM     16  C   UNL     1      -5.884   1.068   0.220  0.00  0.00    +0.047 A 
ATOM     18  C   UNL     1      -5.137  -0.805  -1.108  0.00  0.00    +0.010 A 
ATOM     19  C   UNL     1      -7.207   0.613   0.202  0.00  0.00    +0.026 A 
ATOM     20  C   UNL     1      -6.456  -1.272  -1.134  0.00  0.00    +0.001 A 
ATOM     22  C   UNL     1      -7.474  -0.572  -0.489  0.00  0.00    +0.002 A 
ATOM     28  H   UNL     1      -5.853   2.869   1.344  0.00  0.00    +0.165 HD
ENDBRANCH  11  13
ENDBRANCH   3  11
TORSDOF 4
