REMARK  Name = 71693050
REMARK  9 active torsions:
REMARK  status: ('A' for Active; 'I' for Inactive)
REMARK    1  A    between atoms: N_3  and  C_13
REMARK    2  A    between atoms: C_6  and  C_10
REMARK    3  A    between atoms: C_7  and  C_13
REMARK    4  A    between atoms: C_9  and  C_14
REMARK    5  A    between atoms: C_10  and  C_15
REMARK    6  A    between atoms: C_10  and  C_16
REMARK    7  A    between atoms: C_11  and  C_18
REMARK    8  A    between atoms: C_14  and  C_22
REMARK    9  A    between atoms: C_17  and  C_21
REMARK                            x       y       z     vdW  Elec       q    Type
REMARK                         _______ _______ _______ _____ _____    ______ ____
ROOT
ATOM      6  C   UNL     1      -1.478   1.499   1.113  0.00  0.00    +0.000 C 
ATOM      7  C   UNL     1      -2.609   2.316   0.438  0.00  0.00    +0.032 C 
ATOM      8  C   UNL     1      -0.105   2.090   0.759  0.00  0.00    +0.012 C 
ATOM      9  C   UNL     1       0.147   2.111  -0.760  0.00  0.00    +0.022 C 
ATOM     11  C   UNL     1      -1.043   2.660  -1.521  0.00  0.00    -0.073 C 
ATOM     12  C   UNL     1      -2.263   2.757  -0.965  0.00  0.00    -0.022 C 
ATOM     18  C   UNL     1      -0.787   3.139  -2.923  0.00  0.00    +0.039 C 
ENDROOT
BRANCH   6  10
ATOM     10  C   UNL     1      -1.645   1.447   2.635  0.00  0.00    -0.013 C 
ATOM     15  C   UNL     1      -1.102   2.721   3.273  0.00  0.00    +0.007 C 
ATOM     16  C   UNL     1      -0.945   0.216   3.204  0.00  0.00    +0.007 C 
ENDBRANCH   6  10
BRANCH   7  13
ATOM     13  C   UNL     1      -3.924   1.528   0.417  0.00  0.00    +0.112 C 
BRANCH  13   3
ATOM      2  O   UNL     1      -4.259  -1.249   1.193  0.00  0.00    -0.276 OA
ATOM      3  N   UNL     1      -3.810   0.374  -0.418  0.00  0.00    -0.315 N 
ATOM     21  C   UNL     1      -3.987  -0.931   0.038  0.00  0.00    +0.216 C 
ATOM     32  H   UNL     1      -3.695   0.529  -1.415  0.00  0.00    +0.149 HD
BRANCH  21  17
ATOM     17  C   UNL     1      -3.836  -1.953  -1.051  0.00  0.00    +0.075 C 
ATOM     19  C   UNL     1      -2.453  -1.864  -1.699  0.00  0.00    +0.013 C 
ATOM     20  C   UNL     1      -4.147  -3.350  -0.509  0.00  0.00    +0.013 C 
ATOM     23  C   UNL     1      -1.340  -2.471  -0.845  0.00  0.00    +0.001 C 
ATOM     24  C   UNL     1      -3.018  -3.926   0.345  0.00  0.00    +0.001 C 
ATOM     25  C   UNL     1      -1.682  -3.884  -0.387  0.00  0.00    +0.000 C 
ENDBRANCH  21  17
ENDBRANCH  13   3
ENDBRANCH   7  13
BRANCH   9  14
ATOM     14  C   UNL     1       0.532   0.719  -1.275  0.00  0.00    +0.082 C 
BRANCH  14  22
ATOM      1  F   UNL     1       6.697  -1.862   1.548  0.00  0.00    -0.205 F 
ATOM      4  N   UNL     1       2.255  -0.480   0.086  0.00  0.00    -0.342 N 
ATOM      5  N   UNL     1       3.036   0.839  -1.524  0.00  0.00    -0.232 NA
ATOM     22  C   UNL     1       1.955   0.382  -0.932  0.00  0.00    +0.109 A 
ATOM     26  C   UNL     1       3.621  -0.587   0.155  0.00  0.00    +0.069 A 
ATOM     27  C   UNL     1       4.085   0.246  -0.860  0.00  0.00    +0.089 A 
ATOM     28  C   UNL     1       4.464  -1.318   0.992  0.00  0.00    +0.066 A 
ATOM     29  C   UNL     1       5.469   0.369  -1.065  0.00  0.00    +0.032 A 
ATOM     30  C   UNL     1       5.839  -1.183   0.774  0.00  0.00    +0.125 A 
ATOM     31  C   UNL     1       6.335  -0.356  -0.236  0.00  0.00    +0.040 A 
ATOM     33  H   UNL     1       1.591  -0.955   0.683  0.00  0.00    +0.167 HD
ENDBRANCH  14  22
ENDBRANCH   9  14
TORSDOF 6
