REMARK  Name = 40777880
REMARK  13 active torsions:
REMARK  status: ('A' for Active; 'I' for Inactive)
REMARK    1  A    between atoms: O_2  and  C_10
REMARK    2  A    between atoms: O_3  and  C_11
REMARK    3  A    between atoms: O_6  and  C_27
REMARK    4  A    between atoms: O_6  and  C_28
REMARK    5  A    between atoms: N_7  and  C_15
REMARK    6  A    between atoms: N_8  and  C_18
REMARK    7  A    between atoms: N_9  and  C_19
REMARK    8  A    between atoms: C_12  and  C_14
REMARK    9  A    between atoms: C_13  and  C_15
REMARK   10  A    between atoms: C_14  and  C_16
REMARK   11  A    between atoms: C_18  and  C_20
REMARK   12  A    between atoms: C_19  and  C_21
REMARK   13  A    between atoms: C_19  and  C_22
REMARK                            x       y       z     vdW  Elec       q    Type
REMARK                         _______ _______ _______ _____ _____    ______ ____
ROOT
ATOM      1  O   UNL     1      -2.673   0.177  -0.578  0.00  0.00    -0.366 OA
ATOM     10  C   UNL     1      -4.364  -0.612   0.864  0.00  0.00    +0.175 C 
ATOM     11  C   UNL     1      -4.888   0.625   0.165  0.00  0.00    +0.176 C 
ATOM     12  C   UNL     1      -3.248  -1.042  -0.073  0.00  0.00    +0.158 C 
ATOM     13  C   UNL     1      -3.605   1.261  -0.360  0.00  0.00    +0.167 C 
ENDROOT
BRANCH  10   2
ATOM      2  O   UNL     1      -5.340  -1.620   1.023  0.00  0.00    -0.387 OA
ATOM     29  H   UNL     1      -6.073  -1.237   1.534  0.00  0.00    +0.210 HD
ENDBRANCH  10   2
BRANCH  11   3
ATOM      3  O   UNL     1      -5.691   0.258  -0.956  0.00  0.00    -0.387 OA
ATOM     30  H   UNL     1      -5.973   1.080  -1.393  0.00  0.00    +0.210 HD
ENDBRANCH  11   3
BRANCH  12  14
ATOM     14  C   UNL     1      -2.174  -1.871   0.608  0.00  0.00    +0.130 C 
BRANCH  14  16
ATOM      4  O   UNL     1      -0.984  -1.864  -1.498  0.00  0.00    -0.276 OA
ATOM      8  N   UNL     1      -0.038  -2.935   0.335  0.00  0.00    -0.311 N 
ATOM     16  C   UNL     1      -1.020  -2.205  -0.319  0.00  0.00    +0.216 C 
ATOM     32  H   UNL     1      -0.159  -3.158   1.319  0.00  0.00    +0.149 HD
BRANCH   8  18
ATOM     18  C   UNL     1       1.171  -3.388  -0.314  0.00  0.00    +0.139 C 
BRANCH  18  20
ATOM     20  C   UNL     1       2.279  -2.381  -0.203  0.00  0.00    -0.030 A 
ATOM     23  C   UNL     1       2.852  -1.844  -1.356  0.00  0.00    +0.009 A 
ATOM     24  C   UNL     1       2.735  -1.982   1.053  0.00  0.00    +0.009 A 
ATOM     25  C   UNL     1       3.881  -0.908  -1.253  0.00  0.00    +0.046 A 
ATOM     26  C   UNL     1       3.764  -1.046   1.157  0.00  0.00    +0.046 A 
ATOM     27  C   UNL     1       4.337  -0.509   0.004  0.00  0.00    +0.120 A 
BRANCH  27   6
ATOM      6  O   UNL     1       5.341   0.405   0.104  0.00  0.00    -0.495 OA
ATOM     28  C   UNL     1       5.759   0.768   1.419  0.00  0.00    +0.277 C 
ENDBRANCH  27   6
ENDBRANCH  18  20
ENDBRANCH   8  18
ENDBRANCH  14  16
ENDBRANCH  12  14
BRANCH  13  15
ATOM     15  C   UNL     1      -2.971   2.228   0.630  0.00  0.00    +0.140 C 
BRANCH  15   7
ATOM      5  O   UNL     1      -0.275   1.223   0.846  0.00  0.00    -0.253 OA
ATOM      7  N   UNL     1      -1.764   2.827   0.077  0.00  0.00    -0.297 N 
ATOM      9  N   UNL     1       0.465   3.040  -0.392  0.00  0.00    -0.297 N 
ATOM     17  C   UNL     1      -0.507   2.265   0.235  0.00  0.00    +0.300 C 
ATOM     31  H   UNL     1      -1.855   3.685  -0.458  0.00  0.00    +0.150 HD
ATOM     33  H   UNL     1       0.185   3.924  -0.807  0.00  0.00    +0.150 HD
BRANCH   9  19
ATOM     19  C   UNL     1       1.866   2.692  -0.388  0.00  0.00    +0.068 C 
ATOM     21  C   UNL     1       2.553   3.276   0.840  0.00  0.00    +0.027 C 
ATOM     22  C   UNL     1       2.538   3.162  -1.672  0.00  0.00    +0.027 C 
ENDBRANCH   9  19
ENDBRANCH  15   7
ENDBRANCH  13  15
TORSDOF 10
