REMARK  Name = 28960641
REMARK  5 active torsions:
REMARK  status: ('A' for Active; 'I' for Inactive)
REMARK    1  A    between atoms: N_3  and  C_21
REMARK    2  A    between atoms: N_4  and  C_10
REMARK    3  A    between atoms: N_5  and  C_14
REMARK    4  A    between atoms: C_11  and  C_20
REMARK    5  A    between atoms: C_23  and  C_24
REMARK                            x       y       z     vdW  Elec       q    Type
REMARK                         _______ _______ _______ _____ _____    ______ ____
ROOT
ATOM      3  N   UNL     1       0.512   3.100  -1.133  0.00  0.00    -0.293 NA
ATOM     10  C   UNL     1      -1.365   2.960   0.243  0.00  0.00    +0.090 C 
ATOM     11  C   UNL     1       1.077   2.900   0.215  0.00  0.00    +0.147 C 
ATOM     12  C   UNL     1      -0.148   2.652   1.116  0.00  0.00    +0.052 C 
ATOM     13  C   UNL     1      -0.792   3.741  -0.930  0.00  0.00    +0.107 C 
ATOM     21  C   UNL     1       1.374   3.887  -2.006  0.00  0.00    +0.105 C 
ENDROOT
BRANCH  10   4
ATOM      2  O   UNL     1      -3.541   1.606   1.546  0.00  0.00    -0.253 OA
ATOM      4  N   UNL     1      -2.020   1.752  -0.200  0.00  0.00    -0.295 N 
ATOM      5  N   UNL     1      -3.520   0.013  -0.142  0.00  0.00    -0.297 N 
ATOM     22  C   UNL     1      -3.072   1.164   0.499  0.00  0.00    +0.300 C 
ATOM     28  H   UNL     1      -1.654   1.272  -1.017  0.00  0.00    +0.151 HD
ATOM     29  H   UNL     1      -3.013  -0.303  -0.963  0.00  0.00    +0.151 HD
BRANCH   5  14
ATOM     14  C   UNL     1      -4.604  -0.801   0.362  0.00  0.00    +0.074 C 
ATOM     15  C   UNL     1      -5.389  -1.445  -0.786  0.00  0.00    +0.022 C 
ATOM     16  C   UNL     1      -4.090  -1.857   1.345  0.00  0.00    +0.022 C 
ATOM     17  C   UNL     1      -4.603  -2.559  -1.478  0.00  0.00    +0.002 C 
ATOM     18  C   UNL     1      -3.306  -2.971   0.650  0.00  0.00    +0.002 C 
ATOM     19  C   UNL     1      -4.111  -3.604  -0.481  0.00  0.00    +0.000 C 
ENDBRANCH   5  14
ENDBRANCH  10   4
BRANCH  11  20
ATOM      1  O   UNL     1       3.327   2.100   0.736  0.00  0.00    -0.336 OA
ATOM      6  N   UNL     1       1.946   0.512  -0.031  0.00  0.00    -0.189 NA
ATOM      7  N   UNL     1       4.072   0.914   0.710  0.00  0.00    -0.054 NA
ATOM     20  C   UNL     1       2.087   1.774   0.285  0.00  0.00    +0.245 A 
ATOM     23  C   UNL     1       3.189   0.024   0.247  0.00  0.00    +0.222 A 
BRANCH  23  24
ATOM      8  N   UNL     1       4.776  -1.731   0.358  0.00  0.00    -0.249 NA
ATOM      9  N   UNL     1       2.883  -3.557  -0.614  0.00  0.00    -0.260 NA
ATOM     24  C   UNL     1       3.518  -1.358   0.052  0.00  0.00    +0.129 A 
ATOM     25  C   UNL     1       2.588  -2.255  -0.426  0.00  0.00    +0.142 A 
ATOM     26  C   UNL     1       5.071  -3.032   0.170  0.00  0.00    +0.131 A 
ATOM     27  C   UNL     1       4.141  -3.929  -0.308  0.00  0.00    +0.130 A 
ENDBRANCH  23  24
ENDBRANCH  11  20
TORSDOF 4
