REMARK  Name = 11882025
REMARK  10 active torsions:
REMARK  status: ('A' for Active; 'I' for Inactive)
REMARK    1  A    between atoms: S_1  and  C_21
REMARK    2  A    between atoms: S_1  and  C_32
REMARK    3  A    between atoms: N_9  and  C_14
REMARK    4  A    between atoms: N_10  and  C_20
REMARK    5  A    between atoms: N_11  and  C_29
REMARK    6  A    between atoms: C_15  and  C_18
REMARK    7  A    between atoms: C_19  and  C_21
REMARK    8  A    between atoms: C_20  and  C_23
REMARK    9  A    between atoms: C_20  and  C_25
REMARK   10  A    between atoms: C_23  and  C_24
REMARK                            x       y       z     vdW  Elec       q    Type
REMARK                         _______ _______ _______ _____ _____    ______ ____
ROOT
ATOM      5  O   UNL     1      -5.755  -0.243   0.362  0.00  0.00    -0.275 OA
ATOM      8  N   UNL     1      -4.058   1.016  -0.583  0.00  0.00    -0.287 N 
ATOM     14  C   UNL     1      -2.110   1.931  -1.589  0.00  0.00    +0.094 C 
ATOM     15  C   UNL     1      -3.388  -0.091  -1.249  0.00  0.00    +0.164 C 
ATOM     16  C   UNL     1      -2.401   0.563  -2.213  0.00  0.00    +0.055 C 
ATOM     17  C   UNL     1      -3.423   2.295  -0.903  0.00  0.00    +0.131 C 
ATOM     19  C   UNL     1      -5.248   0.852   0.110  0.00  0.00    +0.226 C 
ENDROOT
BRANCH  14   9
ATOM      6  O   UNL     1       0.658   2.397  -2.160  0.00  0.00    -0.252 OA
ATOM      9  N   UNL     1      -1.015   1.872  -0.653  0.00  0.00    -0.295 N 
ATOM     11  N   UNL     1       1.154   1.986   0.097  0.00  0.00    -0.267 N 
ATOM     22  C   UNL     1       0.316   2.114  -1.014  0.00  0.00    +0.304 C 
ATOM     40  H   UNL     1      -1.209   1.579   0.300  0.00  0.00    +0.151 HD
ATOM     42  H   UNL     1       0.711   1.743   0.980  0.00  0.00    +0.156 HD
BRANCH  11  29
ATOM      2  F   UNL     1       2.572   1.662   2.474  0.00  0.00    -0.203 F 
ATOM      3  F   UNL     1       6.656   2.630   0.291  0.00  0.00    -0.205 F 
ATOM     29  C   UNL     1       2.558   2.151   0.150  0.00  0.00    +0.070 A 
ATOM     35  C   UNL     1       3.239   1.981   1.356  0.00  0.00    +0.147 A 
ATOM     36  C   UNL     1       3.261   2.483  -1.008  0.00  0.00    +0.029 A 
ATOM     37  C   UNL     1       4.623   2.143   1.403  0.00  0.00    +0.078 A 
ATOM     38  C   UNL     1       4.646   2.645  -0.960  0.00  0.00    +0.040 A 
ATOM     39  C   UNL     1       5.327   2.475   0.246  0.00  0.00    +0.126 A 
ENDBRANCH  11  29
ENDBRANCH  14   9
BRANCH  15  18
ATOM      4  O   UNL     1      -2.724  -0.637   0.978  0.00  0.00    -0.274 OA
ATOM     10  N   UNL     1      -1.993  -1.980  -0.777  0.00  0.00    -0.302 N 
ATOM     18  C   UNL     1      -2.683  -0.918  -0.216  0.00  0.00    +0.234 C 
ATOM     41  H   UNL     1      -2.102  -2.166  -1.770  0.00  0.00    +0.150 HD
BRANCH  10  20
ATOM     20  C   UNL     1      -1.213  -2.915   0.001  0.00  0.00    +0.163 C 
BRANCH  20  25
ATOM      7  O   UNL     1      -3.108  -4.424  -0.194  0.00  0.00    -0.274 OA
ATOM     13  N   UNL     1      -1.818  -4.519   1.705  0.00  0.00    -0.328 N 
ATOM     25  C   UNL     1      -2.162  -4.007   0.471  0.00  0.00    +0.231 C 
ATOM     44  H   UNL     1      -1.019  -4.181   2.232  0.00  0.00    +0.145 HD
ATOM     45  H   UNL     1      -2.361  -5.263   2.129  0.00  0.00    +0.145 HD
ENDBRANCH  20  25
BRANCH  20  23
ATOM     23  C   UNL     1      -0.057  -3.519  -0.806  0.00  0.00    +0.069 C 
BRANCH  23  24
ATOM     12  N   UNL     1       2.522  -1.043  -1.659  0.00  0.00    -0.360 N 
ATOM     24  C   UNL     1       1.127  -2.602  -0.917  0.00  0.00    -0.020 A 
ATOM     26  C   UNL     1       2.231  -2.530  -0.023  0.00  0.00    +0.003 A 
ATOM     27  C   UNL     1       1.335  -1.675  -1.913  0.00  0.00    +0.087 A 
ATOM     28  C   UNL     1       3.091  -1.545  -0.511  0.00  0.00    +0.047 A 
ATOM     30  C   UNL     1       2.582  -3.212   1.160  0.00  0.00    +0.010 A 
ATOM     31  C   UNL     1       4.290  -1.205   0.126  0.00  0.00    +0.026 A 
ATOM     33  C   UNL     1       3.778  -2.883   1.808  0.00  0.00    +0.001 A 
ATOM     34  C   UNL     1       4.618  -1.894   1.298  0.00  0.00    +0.002 A 
ATOM     43  H   UNL     1       2.923  -0.313  -2.232  0.00  0.00    +0.165 HD
ENDBRANCH  23  24
ENDBRANCH  20  23
ENDBRANCH  10  20
ENDBRANCH  15  18
BRANCH  19  21
ATOM     21  C   UNL     1      -5.914   2.124   0.571  0.00  0.00    +0.164 C 
BRANCH  21   1
ATOM      1  S   UNL     1      -5.292   2.501   2.216  0.00  0.00    -0.155 S 
ATOM     32  C   UNL     1      -6.222   4.023   2.524  0.00  0.00    +0.085 C 
ENDBRANCH  21   1
ENDBRANCH  19  21
TORSDOF 9
