REMARK  Name = 56774784
REMARK  7 active torsions:
REMARK  status: ('A' for Active; 'I' for Inactive)
REMARK    1  A    between atoms: O_3  and  C_11
REMARK    2  A    between atoms: N_6  and  C_13
REMARK    3  A    between atoms: N_8  and  C_22
REMARK    4  A    between atoms: C_10  and  C_11
REMARK    5  A    between atoms: C_11  and  C_15
REMARK    6  A    between atoms: C_13  and  C_17
REMARK    7  A    between atoms: C_27  and  C_28
REMARK                            x       y       z     vdW  Elec       q    Type
REMARK                         _______ _______ _______ _____ _____    ______ ____
ROOT
ATOM     11  C   UNL     1      -1.823  -1.245   1.019  0.00  0.00    +0.167 C 
ENDROOT
BRANCH  11  10
ATOM      2  O   UNL     1      -2.719  -2.579  -1.436  0.00  0.00    -0.369 OA
ATOM      4  O   UNL     1      -5.971  -2.102   0.060  0.00  0.00    -0.273 OA
ATOM      6  N   UNL     1      -4.087  -0.741   0.180  0.00  0.00    -0.286 N 
ATOM     10  C   UNL     1      -2.652  -0.601  -0.096  0.00  0.00    +0.135 C 
ATOM     12  C   UNL     1      -2.319  -1.214  -1.451  0.00  0.00    +0.185 C 
ATOM     14  C   UNL     1      -4.816  -1.838  -0.277  0.00  0.00    +0.242 C 
ATOM     16  C   UNL     1      -4.120  -2.694  -1.329  0.00  0.00    +0.255 C 
BRANCH   6  13
ATOM     13  C   UNL     1      -4.691   0.210   1.104  0.00  0.00    +0.163 C 
BRANCH  13  17
ATOM      7  N   UNL     1      -4.667   2.263  -0.194  0.00  0.00    -0.258 NA
ATOM     17  C   UNL     1      -5.424   1.304   0.384  0.00  0.00    +0.059 A 
ATOM     23  C   UNL     1      -6.809   1.282   0.346  0.00  0.00    +0.025 A 
ATOM     24  C   UNL     1      -7.458   2.310  -0.329  0.00  0.00    +0.003 A 
ATOM     25  C   UNL     1      -5.332   3.246  -0.841  0.00  0.00    +0.111 A 
ATOM     26  C   UNL     1      -6.713   3.315  -0.936  0.00  0.00    +0.020 A 
ENDBRANCH  13  17
ENDBRANCH   6  13
ENDBRANCH  11  10
BRANCH  11  15
ATOM     15  C   UNL     1      -0.343  -1.084   0.781  0.00  0.00    -0.017 A 
ATOM     18  C   UNL     1       0.473  -2.211   0.678  0.00  0.00    +0.008 A 
ATOM     19  C   UNL     1       0.210   0.191   0.665  0.00  0.00    +0.008 A 
ATOM     20  C   UNL     1       1.843  -2.062   0.458  0.00  0.00    +0.023 A 
ATOM     21  C   UNL     1       1.580   0.340   0.446  0.00  0.00    +0.023 A 
ATOM     22  C   UNL     1       2.396  -0.787   0.342  0.00  0.00    +0.034 A 
BRANCH  22   8
ATOM      5  O   UNL     1       4.048   1.695   0.026  0.00  0.00    -0.270 OA
ATOM      8  N   UNL     1       3.766  -0.637   0.123  0.00  0.00    -0.282 N 
ATOM     27  C   UNL     1       4.492   0.552  -0.018  0.00  0.00    +0.248 C 
ATOM     34  H   UNL     1       4.276  -1.516   0.107  0.00  0.00    +0.155 HD
BRANCH  27  28
ATOM      1 CL   UNL     1       9.343   2.369   0.430  0.00  0.00    -0.062 Cl
ATOM      9  N   UNL     1       8.709   0.071  -0.587  0.00  0.00    -0.244 NA
ATOM     28  C   UNL     1       5.956   0.386  -0.215  0.00  0.00    +0.041 A 
ATOM     29  C   UNL     1       6.833   1.390   0.180  0.00  0.00    +0.053 A 
ATOM     30  C   UNL     1       6.454  -0.775  -0.797  0.00  0.00    +0.033 A 
ATOM     31  C   UNL     1       8.188   1.185  -0.026  0.00  0.00    +0.130 A 
ATOM     32  C   UNL     1       7.825  -0.883  -0.959  0.00  0.00    +0.113 A 
ENDBRANCH  27  28
ENDBRANCH  22   8
ENDBRANCH  11  15
BRANCH  11   3
ATOM      3  O   UNL     1      -2.171  -0.654   2.266  0.00  0.00    -0.385 OA
ATOM     33  H   UNL     1      -1.804   0.245   2.308  0.00  0.00    +0.210 HD
ENDBRANCH  11   3
TORSDOF 7
