REMARK  Name = 45783362
REMARK  10 active torsions:
REMARK  status: ('A' for Active; 'I' for Inactive)
REMARK    1  A    between atoms: O_5  and  C_28
REMARK    2  A    between atoms: O_5  and  C_30
REMARK    3  A    between atoms: O_6  and  C_31
REMARK    4  A    between atoms: O_6  and  C_32
REMARK    5  A    between atoms: N_7  and  C_15
REMARK    6  A    between atoms: C_11  and  C_16
REMARK    7  A    between atoms: C_15  and  C_17
REMARK    8  A    between atoms: C_20  and  C_24
REMARK    9  A    between atoms: C_23  and  C_25
REMARK   10  A    between atoms: C_30  and  C_31
REMARK                            x       y       z     vdW  Elec       q    Type
REMARK                         _______ _______ _______ _____ _____    ______ ____
ROOT
ATOM      7  N   UNL     1      -3.598  -1.255  -1.277  0.00  0.00    -0.287 NA
ATOM     11  C   UNL     1      -3.743  -1.579   0.156  0.00  0.00    +0.146 C 
ATOM     12  C   UNL     1      -4.096  -3.077   0.185  0.00  0.00    +0.030 C 
ATOM     13  C   UNL     1      -4.186  -3.493  -1.276  0.00  0.00    +0.017 C 
ATOM     14  C   UNL     1      -4.459  -2.191  -2.001  0.00  0.00    +0.085 C 
ENDROOT
BRANCH  11  16
ATOM      4  O   UNL     1      -2.680  -0.963   2.269  0.00  0.00    -0.336 OA
ATOM      8  N   UNL     1      -1.249  -1.212   0.564  0.00  0.00    -0.190 NA
ATOM      9  N   UNL     1      -1.406  -0.702   2.789  0.00  0.00    -0.056 NA
ATOM     16  C   UNL     1      -2.498  -1.255   0.955  0.00  0.00    +0.245 A 
ATOM     20  C   UNL     1      -0.617  -0.869   1.723  0.00  0.00    +0.202 A 
BRANCH  20  24
ATOM     10  N   UNL     1       3.580  -0.374   1.903  0.00  0.00    -0.221 NA
ATOM     24  C   UNL     1       0.806  -0.701   1.784  0.00  0.00    +0.029 A 
ATOM     26  C   UNL     1       1.581  -0.888   0.644  0.00  0.00    +0.079 A 
ATOM     27  C   UNL     1       1.417  -0.351   2.983  0.00  0.00    +0.031 A 
ATOM     28  C   UNL     1       2.951  -0.715   0.755  0.00  0.00    +0.215 A 
ATOM     29  C   UNL     1       2.795  -0.201   2.989  0.00  0.00    +0.115 A 
BRANCH  28   5
ATOM      5  O   UNL     1       3.736  -0.894  -0.354  0.00  0.00    -0.474 OA
BRANCH   5  30
ATOM     30  C   UNL     1       5.135  -0.703  -0.185  0.00  0.00    +0.258 C 
BRANCH  30  31
ATOM     31  C   UNL     1       5.834  -0.966  -1.505  0.00  0.00    +0.200 C 
BRANCH  31   6
ATOM      6  O   UNL     1       5.590  -2.311  -1.899  0.00  0.00    -0.380 OA
ATOM     32  C   UNL     1       6.204  -2.608  -3.145  0.00  0.00    +0.194 C 
ENDBRANCH  31   6
ENDBRANCH  30  31
ENDBRANCH   5  30
ENDBRANCH  28   5
ENDBRANCH  20  24
ENDBRANCH  11  16
BRANCH   7  15
ATOM     15  C   UNL     1      -3.914   0.133  -1.588  0.00  0.00    +0.120 C 
BRANCH  15  17
ATOM     17  C   UNL     1      -2.773   1.056  -1.253  0.00  0.00    -0.033 A 
ATOM     18  C   UNL     1      -2.963   2.100  -0.348  0.00  0.00    +0.005 A 
ATOM     19  C   UNL     1      -1.525   0.867  -1.847  0.00  0.00    +0.005 A 
ATOM     21  C   UNL     1      -1.906   2.955  -0.037  0.00  0.00    +0.012 A 
ATOM     22  C   UNL     1      -0.468   1.722  -1.537  0.00  0.00    +0.012 A 
ATOM     23  C   UNL     1      -0.658   2.766  -0.631  0.00  0.00    +0.055 A 
BRANCH  23  25
ATOM      1  F   UNL     1       1.548   3.039   0.252  0.00  0.00    -0.166 F 
ATOM      2  F   UNL     1       0.121   4.641   0.605  0.00  0.00    -0.166 F 
ATOM      3  F   UNL     1       0.971   4.351  -1.376  0.00  0.00    -0.166 F 
ATOM     25  C   UNL     1       0.473   3.678  -0.296  0.00  0.00    +0.417 C 
ENDBRANCH  23  25
ENDBRANCH  15  17
ENDBRANCH   7  15
TORSDOF 9
