REMARK  Name = 75536602
REMARK  8 active torsions:
REMARK  status: ('A' for Active; 'I' for Inactive)
REMARK    1  A    between atoms: O_3  and  C_9
REMARK    2  A    between atoms: O_5  and  C_16
REMARK    3  A    between atoms: N_6  and  C_8
REMARK    4  A    between atoms: N_6  and  C_13
REMARK    5  A    between atoms: N_7  and  C_12
REMARK    6  A    between atoms: C_10  and  C_12
REMARK    7  A    between atoms: C_13  and  C_14
REMARK    8  A    between atoms: C_15  and  C_18
REMARK                            x       y       z     vdW  Elec       q    Type
REMARK                         _______ _______ _______ _____ _____    ______ ____
ROOT
ATOM      2  O   UNL     1       0.870   0.916   0.093  0.00  0.00    -0.371 OA
ATOM      8  C   UNL     1      -1.144  -0.322   0.319  0.00  0.00    +0.111 C 
ATOM      9  C   UNL     1      -0.213  -1.060  -0.626  0.00  0.00    +0.164 C 
ATOM     10  C   UNL     1       1.131  -0.457  -0.243  0.00  0.00    +0.165 C 
ATOM     11  C   UNL     1      -0.544   1.074   0.303  0.00  0.00    +0.181 C 
ENDROOT
BRANCH   9   3
ATOM      3  O   UNL     1      -0.238  -2.461  -0.433  0.00  0.00    -0.388 OA
ATOM     26  H   UNL     1      -0.019  -2.645   0.496  0.00  0.00    +0.210 HD
ENDBRANCH   9   3
BRANCH   8   6
ATOM      6  N   UNL     1      -2.537  -0.344  -0.098  0.00  0.00    -0.305 NA
ATOM     25  H   UNL     1      -2.785  -1.293  -0.380  0.00  0.00    +0.123 HD
BRANCH   6  13
ATOM     13  C   UNL     1      -3.417   0.071   0.987  0.00  0.00    +0.120 C 
BRANCH  13  14
ATOM     14  C   UNL     1      -4.863   0.070   0.568  0.00  0.00    +0.008 A 
ATOM     16  C   UNL     1      -5.374   1.091  -0.233  0.00  0.00    +0.121 A 
ATOM     17  C   UNL     1      -5.694  -0.967   0.990  0.00  0.00    +0.008 A 
ATOM     19  C   UNL     1      -6.716   1.075  -0.612  0.00  0.00    +0.046 A 
ATOM     20  C   UNL     1      -7.037  -0.983   0.611  0.00  0.00    +0.001 A 
ATOM     21  C   UNL     1      -7.548   0.038  -0.190  0.00  0.00    +0.004 A 
BRANCH  16   5
ATOM      5  O   UNL     1      -4.576   2.112  -0.653  0.00  0.00    -0.506 OA
ATOM     28  H   UNL     1      -5.102   2.724  -1.197  0.00  0.00    +0.292 HD
ENDBRANCH  16   5
ENDBRANCH  13  14
ENDBRANCH   6  13
ENDBRANCH   8   6
BRANCH  10  12
ATOM     12  C   UNL     1       2.160  -0.526  -1.357  0.00  0.00    +0.138 C 
BRANCH  12   7
ATOM      4  O   UNL     1       4.355  -1.881  -0.097  0.00  0.00    -0.270 OA
ATOM      7  N   UNL     1       3.407   0.056  -0.953  0.00  0.00    -0.308 N 
ATOM     15  C   UNL     1       4.420  -0.680  -0.346  0.00  0.00    +0.251 C 
ATOM     27  H   UNL     1       3.525   1.050  -1.116  0.00  0.00    +0.149 HD
BRANCH  15  18
ATOM      1  S   UNL     1       6.935  -0.756   0.789  0.00  0.00    -0.092 S 
ATOM     18  C   UNL     1       5.641   0.076   0.036  0.00  0.00    +0.074 A 
ATOM     22  C   UNL     1       5.914   1.416  -0.127  0.00  0.00    +0.021 A 
ATOM     23  C   UNL     1       7.202   1.764   0.372  0.00  0.00    +0.008 A 
ATOM     24  C   UNL     1       7.865   0.677   0.898  0.00  0.00    +0.046 A 
ENDBRANCH  15  18
ENDBRANCH  12   7
ENDBRANCH  10  12
TORSDOF 8
