REMARK  Name = 11884107
REMARK  9 active torsions:
REMARK  status: ('A' for Active; 'I' for Inactive)
REMARK    1  A    between atoms: S_1  and  N_8
REMARK    2  A    between atoms: S_1  and  C_17
REMARK    3  A    between atoms: O_4  and  C_14
REMARK    4  A    between atoms: O_4  and  C_18
REMARK    5  A    between atoms: N_8  and  C_13
REMARK    6  A    between atoms: N_9  and  C_23
REMARK    7  A    between atoms: C_28  and  C_30
REMARK    8  A    between atoms: C_30  and  C_34
REMARK    9  A    between atoms: C_30  and  C_35
REMARK                            x       y       z     vdW  Elec       q    Type
REMARK                         _______ _______ _______ _____ _____    ______ ____
ROOT
ATOM      2  O   UNL     1      -0.181   1.584  -0.894  0.00  0.00    -0.369 OA
ATOM      3  O   UNL     1       1.752   1.983   1.465  0.00  0.00    -0.368 OA
ATOM     11  C   UNL     1       1.633   0.928   0.488  0.00  0.00    +0.171 C 
ATOM     12  C   UNL     1       0.152   0.741   0.221  0.00  0.00    +0.191 C 
ATOM     13  C   UNL     1       2.187   1.389  -0.837  0.00  0.00    +0.133 C 
ATOM     14  C   UNL     1      -0.478   1.233   1.502  0.00  0.00    +0.235 C 
ATOM     15  C   UNL     1       1.021   2.144  -1.445  0.00  0.00    +0.183 C 
ATOM     16  C   UNL     1       0.437   2.373   1.888  0.00  0.00    +0.207 C 
ENDROOT
BRANCH  13   8
ATOM      8  N   UNL     1       2.520   0.218  -1.682  0.00  0.00    -0.182 NA
ATOM     36  H   UNL     1       1.881  -0.585  -1.658  0.00  0.00    +0.148 HD
BRANCH   8   1
ATOM      1  S   UNL     1       4.083   0.059  -2.325  0.00  0.00    +0.061 S 
ATOM      5  O   UNL     1       4.429   1.261  -3.058  0.00  0.00    -0.153 OA
ATOM      6  O   UNL     1       4.197  -1.241  -2.960  0.00  0.00    -0.153 OA
BRANCH   1  17
ATOM     10  N   UNL     1       4.227  -2.141  -0.318  0.00  0.00    -0.253 NA
ATOM     17  C   UNL     1       5.076   0.006  -0.863  0.00  0.00    +0.131 A 
ATOM     19  C   UNL     1       5.027  -1.098  -0.027  0.00  0.00    +0.097 A 
ATOM     20  C   UNL     1       5.888   1.106  -0.603  0.00  0.00    +0.031 A 
ATOM     21  C   UNL     1       5.841  -1.083   1.125  0.00  0.00    +0.002 A 
ATOM     22  C   UNL     1       6.687   1.114   0.534  0.00  0.00    +0.003 A 
ATOM     24  C   UNL     1       6.665   0.022   1.397  0.00  0.00    +0.010 A 
ATOM     25  C   UNL     1       5.799  -2.195   1.977  0.00  0.00    +0.011 A 
ATOM     29  C   UNL     1       4.216  -3.195   0.530  0.00  0.00    +0.111 A 
ATOM     31  C   UNL     1       4.975  -3.271   1.680  0.00  0.00    +0.020 A 
ENDBRANCH   1  17
ENDBRANCH   8   1
ENDBRANCH  13   8
BRANCH  14   4
ATOM      4  O   UNL     1      -1.814   1.654   1.347  0.00  0.00    -0.442 OA
BRANCH   4  18
ATOM      7  O   UNL     1      -2.417  -0.468   0.744  0.00  0.00    -0.226 OA
ATOM      9  N   UNL     1      -3.981   1.271   0.851  0.00  0.00    -0.251 N 
ATOM     18  C   UNL     1      -2.728   0.698   0.954  0.00  0.00    +0.405 C 
ATOM     37  H   UNL     1      -4.040   2.263   1.068  0.00  0.00    +0.158 HD
BRANCH   9  23
ATOM     23  C   UNL     1      -5.194   0.649   0.478  0.00  0.00    +0.036 A 
ATOM     26  C   UNL     1      -6.357   1.402   0.433  0.00  0.00    +0.024 A 
ATOM     27  C   UNL     1      -5.198  -0.701   0.167  0.00  0.00    +0.024 A 
ATOM     28  C   UNL     1      -7.574  -0.570  -0.251  0.00  0.00    -0.045 A 
ATOM     32  C   UNL     1      -7.555   0.788   0.067  0.00  0.00    +0.006 A 
ATOM     33  C   UNL     1      -6.395  -1.315  -0.201  0.00  0.00    +0.006 A 
BRANCH  28  30
ATOM     30  C   UNL     1      -8.854  -1.227  -0.643  0.00  0.00    +0.013 C 
ATOM     34  C   UNL     1      -8.815  -1.782  -2.079  0.00  0.00    +0.012 C 
ATOM     35  C   UNL     1      -9.270  -2.340   0.337  0.00  0.00    +0.012 C 
ENDBRANCH  28  30
ENDBRANCH   9  23
ENDBRANCH   4  18
ENDBRANCH  14   4
TORSDOF 7
