REMARK  Name = 75536923
REMARK  7 active torsions:
REMARK  status: ('A' for Active; 'I' for Inactive)
REMARK    1  A    between atoms: S_1  and  C_22
REMARK    2  A    between atoms: S_1  and  C_25
REMARK    3  A    between atoms: O_3  and  C_10
REMARK    4  A    between atoms: O_3  and  C_16
REMARK    5  A    between atoms: N_6  and  C_13
REMARK    6  A    between atoms: N_7  and  C_20
REMARK    7  A    between atoms: C_13  and  C_15
REMARK                            x       y       z     vdW  Elec       q    Type
REMARK                         _______ _______ _______ _____ _____    ______ ____
ROOT
ATOM      2  O   UNL     1      -1.081  -3.310   0.285  0.00  0.00    -0.375 OA
ATOM      6  N   UNL     1      -2.719  -0.823  -0.643  0.00  0.00    -0.289 NA
ATOM      9  C   UNL     1      -1.514  -0.137  -0.164  0.00  0.00    +0.131 C 
ATOM     10  C   UNL     1      -0.355  -1.002   0.357  0.00  0.00    +0.213 C 
ATOM     11  C   UNL     1      -2.457  -2.075  -1.355  0.00  0.00    +0.113 C 
ATOM     12  C   UNL     1      -0.791  -2.222   1.157  0.00  0.00    +0.205 C 
ATOM     14  C   UNL     1      -2.346  -3.229  -0.357  0.00  0.00    +0.175 C 
ENDROOT
BRANCH  10   3
ATOM      3  O   UNL     1       0.461  -0.189   1.202  0.00  0.00    -0.485 OA
BRANCH   3  16
ATOM     16  C   UNL     1       1.754   0.003   0.802  0.00  0.00    +0.121 A 
ATOM     18  C   UNL     1       2.606  -1.091   0.646  0.00  0.00    +0.047 A 
ATOM     19  C   UNL     1       2.223   1.292   0.550  0.00  0.00    +0.047 A 
ATOM     22  C   UNL     1       4.393   0.394  -0.014  0.00  0.00    +0.088 A 
ATOM     23  C   UNL     1       3.925  -0.896   0.238  0.00  0.00    +0.030 A 
ATOM     24  C   UNL     1       3.542   1.488   0.142  0.00  0.00    +0.030 A 
BRANCH  22   1
ATOM      1  S   UNL     1       6.044   0.637  -0.529  0.00  0.00    -0.006 S 
ATOM      4  O   UNL     1       6.529  -0.586  -1.153  0.00  0.00    -0.170 OA
ATOM      5  O   UNL     1       6.104   1.895  -1.260  0.00  0.00    -0.170 OA
ATOM     25  C   UNL     1       6.954   0.842   0.986  0.00  0.00    +0.200 C 
ENDBRANCH  22   1
ENDBRANCH   3  16
ENDBRANCH  10   3
BRANCH   6  13
ATOM     13  C   UNL     1      -3.532   0.090  -1.447  0.00  0.00    +0.159 C 
BRANCH  13  15
ATOM      7  N   UNL     1      -5.305   0.856   0.165  0.00  0.00    -0.336 N 
ATOM      8  N   UNL     1      -3.841   2.393  -0.486  0.00  0.00    -0.239 NA
ATOM     15  C   UNL     1      -4.206   1.135  -0.598  0.00  0.00    +0.124 A 
ATOM     17  C   UNL     1      -5.664   2.009   0.804  0.00  0.00    +0.106 A 
ATOM     20  C   UNL     1      -5.977  -0.416   0.286  0.00  0.00    +0.150 C 
ATOM     21  C   UNL     1      -4.746   2.943   0.387  0.00  0.00    +0.130 A 
ENDBRANCH  13  15
ENDBRANCH   6  13
TORSDOF 5
