REMARK  Name = 11885076
REMARK  15 active torsions:
REMARK  status: ('A' for Active; 'I' for Inactive)
REMARK    1  A    between atoms: O_2  and  C_14
REMARK    2  A    between atoms: O_3  and  C_19
REMARK    3  A    between atoms: N_7  and  C_25
REMARK    4  A    between atoms: N_7  and  C_26
REMARK    5  A    between atoms: C_9  and  C_17
REMARK    6  A    between atoms: C_11  and  C_19
REMARK    7  A    between atoms: C_11  and  C_20
REMARK    8  A    between atoms: C_12  and  C_22
REMARK    9  A    between atoms: C_22  and  C_23
REMARK   10  A    between atoms: C_25  and  C_28
REMARK   11  A    between atoms: C_27  and  C_29
REMARK   12  A    between atoms: C_29  and  C_30
REMARK   13  A    between atoms: C_30  and  C_33
REMARK   14  A    between atoms: C_33  and  C_37
REMARK   15  A    between atoms: C_37  and  C_38
REMARK                            x       y       z     vdW  Elec       q    Type
REMARK                         _______ _______ _______ _____ _____    ______ ____
ROOT
ATOM      1  S   UNL     1      -0.097   3.841  -0.276  0.00  0.00    -0.057 S 
ATOM      5  O   UNL     1       3.662   1.107   0.069  0.00  0.00    -0.275 OA
ATOM      6  N   UNL     1       0.711   1.401   0.021  0.00  0.00    -0.229 NA
ATOM      8  N   UNL     1       2.415   3.095  -0.173  0.00  0.00    -0.265 N 
ATOM      9  C   UNL     1      -2.972   0.379   0.530  0.00  0.00    -0.019 C 
ATOM     10  C   UNL     1      -3.507   1.536  -0.424  0.00  0.00    +0.011 C 
ATOM     11  C   UNL     1      -5.071   1.711  -0.530  0.00  0.00    +0.021 C 
ATOM     12  C   UNL     1      -1.444   0.098   0.155  0.00  0.00    +0.054 C 
ATOM     13  C   UNL     1      -3.785  -0.916   0.275  0.00  0.00    +0.010 C 
ATOM     14  C   UNL     1      -5.729   0.318  -0.738  0.00  0.00    +0.123 C 
ATOM     15  C   UNL     1      -2.741   2.870  -0.185  0.00  0.00    +0.049 C 
ATOM     16  C   UNL     1      -5.293  -0.713   0.298  0.00  0.00    +0.032 C 
ATOM     17  C   UNL     1      -3.074   0.743   2.032  0.00  0.00    +0.012 C 
ATOM     18  C   UNL     1      -0.671   1.385   0.026  0.00  0.00    +0.058 A 
ATOM     20  C   UNL     1      -5.401   2.570  -1.784  0.00  0.00    +0.016 C 
ATOM     21  C   UNL     1      -1.272   2.615  -0.143  0.00  0.00    +0.015 A 
ATOM     24  C   UNL     1       1.123   2.642  -0.125  0.00  0.00    +0.165 A 
ATOM     27  C   UNL     1       3.588   2.322  -0.076  0.00  0.00    +0.219 C 
ATOM     41  H   UNL     1       2.513   4.100  -0.292  0.00  0.00    +0.157 HD
ENDROOT
BRANCH  14   2
ATOM      2  O   UNL     1      -7.152   0.424  -0.708  0.00  0.00    -0.391 OA
ATOM     39  H   UNL     1      -7.517  -0.459  -0.888  0.00  0.00    +0.210 HD
ENDBRANCH  14   2
BRANCH  11  19
ATOM     19  C   UNL     1      -5.715   2.453   0.662  0.00  0.00    +0.165 C 
BRANCH  19   3
ATOM      3  O   UNL     1      -7.101   2.539   0.419  0.00  0.00    -0.394 OA
ATOM     40  H   UNL     1      -7.497   3.015   1.168  0.00  0.00    +0.209 HD
ENDBRANCH  19   3
ENDBRANCH  11  19
BRANCH  12  22
ATOM     22  C   UNL     1      -0.732  -0.895   1.083  0.00  0.00    +0.106 C 
BRANCH  22  23
ATOM      4  O   UNL     1       0.684  -1.374  -0.792  0.00  0.00    -0.276 OA
ATOM      7  N   UNL     1       1.108  -2.539   1.168  0.00  0.00    -0.300 N 
ATOM     23  C   UNL     1       0.409  -1.612   0.388  0.00  0.00    +0.216 C 
ATOM     26  C   UNL     1       0.766  -2.804   2.560  0.00  0.00    +0.132 C 
BRANCH   7  25
ATOM     25  C   UNL     1       2.234  -3.311   0.648  0.00  0.00    +0.142 C 
BRANCH  25  28
ATOM     28  C   UNL     1       1.787  -4.589  -0.002  0.00  0.00    -0.030 A 
ATOM     31  C   UNL     1       1.675  -5.755   0.755  0.00  0.00    +0.005 A 
ATOM     32  C   UNL     1       1.482  -4.609  -1.363  0.00  0.00    +0.005 A 
ATOM     34  C   UNL     1       1.260  -6.941   0.152  0.00  0.00    +0.000 A 
ATOM     35  C   UNL     1       1.066  -5.796  -1.967  0.00  0.00    +0.000 A 
ATOM     36  C   UNL     1       0.955  -6.962  -1.209  0.00  0.00    +0.000 A 
ENDBRANCH  25  28
ENDBRANCH   7  25
ENDBRANCH  22  23
ENDBRANCH  12  22
BRANCH  27  29
ATOM     29  C   UNL     1       4.831   3.196  -0.177  0.00  0.00    +0.096 C 
BRANCH  29  30
ATOM     30  C   UNL     1       6.126   2.393  -0.075  0.00  0.00    +0.009 C 
BRANCH  30  33
ATOM     33  C   UNL     1       7.353   3.294  -0.218  0.00  0.00    +0.000 C 
BRANCH  33  37
ATOM     37  C   UNL     1       8.649   2.494  -0.083  0.00  0.00    -0.003 C 
ATOM     38  C   UNL     1       9.871   3.392  -0.191  0.00  0.00    +0.004 C 
ENDBRANCH  33  37
ENDBRANCH  30  33
ENDBRANCH  29  30
ENDBRANCH  27  29
TORSDOF 11
