REMARK  Name = 38030436
REMARK  10 active torsions:
REMARK  status: ('A' for Active; 'I' for Inactive)
REMARK    1  A    between atoms: N_2  and  C_11
REMARK    2  A    between atoms: C_6  and  C_10
REMARK    3  A    between atoms: C_7  and  C_11
REMARK    4  A    between atoms: C_9  and  C_17
REMARK    5  A    between atoms: C_10  and  C_20
REMARK    6  A    between atoms: C_10  and  C_21
REMARK    7  A    between atoms: C_13  and  C_22
REMARK    8  A    between atoms: C_16  and  C_23
REMARK    9  A    between atoms: C_17  and  C_24
REMARK   10  A    between atoms: C_25  and  C_26
REMARK                            x       y       z     vdW  Elec       q    Type
REMARK                         _______ _______ _______ _____ _____    ______ ____
ROOT
ATOM      6  C   UNL     1       1.639   1.054  -0.772  0.00  0.00    +0.000 C 
ATOM      7  C   UNL     1       2.683   1.470   0.291  0.00  0.00    +0.029 C 
ATOM      8  C   UNL     1       0.218   1.155  -0.200  0.00  0.00    +0.012 C 
ATOM      9  C   UNL     1      -0.126   2.561   0.336  0.00  0.00    +0.024 C 
ATOM     12  C   UNL     1       2.278   2.711   1.045  0.00  0.00    -0.023 C 
ATOM     13  C   UNL     1       1.033   3.220   1.068  0.00  0.00    -0.073 C 
ATOM     22  C   UNL     1       0.756   4.514   1.784  0.00  0.00    +0.039 C 
ENDROOT
BRANCH   6  10
ATOM     10  C   UNL     1       1.782   1.888  -2.053  0.00  0.00    -0.013 C 
ATOM     20  C   UNL     1       3.209   1.803  -2.587  0.00  0.00    +0.007 C 
ATOM     21  C   UNL     1       0.782   1.422  -3.106  0.00  0.00    +0.007 C 
ENDBRANCH   6  10
BRANCH   7  11
ATOM     11  C   UNL     1       2.955   0.340   1.289  0.00  0.00    +0.092 C 
BRANCH  11   2
ATOM      2  N   UNL     1       3.374  -0.876   0.591  0.00  0.00    -0.302 NA
ATOM     14  C   UNL     1       3.192  -2.052   1.453  0.00  0.00    +0.084 C 
ATOM     15  C   UNL     1       4.769  -0.757   0.144  0.00  0.00    +0.084 C 
ATOM     16  C   UNL     1       5.015  -3.273   0.195  0.00  0.00    -0.012 C 
ATOM     18  C   UNL     1       3.577  -3.338   0.719  0.00  0.00    +0.018 C 
ATOM     19  C   UNL     1       5.206  -1.999  -0.635  0.00  0.00    +0.018 C 
ATOM     23  C   UNL     1       5.359  -4.516  -0.621  0.00  0.00    +0.007 C 
ENDBRANCH  11   2
ENDBRANCH   7  11
BRANCH   9  17
ATOM     17  C   UNL     1      -1.394   2.461   1.193  0.00  0.00    +0.105 C 
BRANCH  17  24
ATOM      1  O   UNL     1      -2.798   0.515   0.750  0.00  0.00    -0.420 OA
ATOM      3  N   UNL     1      -3.291   2.304  -0.500  0.00  0.00    -0.112 NA
ATOM      4  N   UNL     1      -4.156   1.285  -0.853  0.00  0.00    -0.107 NA
ATOM     24  C   UNL     1      -2.517   1.810   0.438  0.00  0.00    +0.218 A 
ATOM     25  C   UNL     1      -3.832   0.261  -0.098  0.00  0.00    +0.250 A 
BRANCH  25  26
ATOM      5  N   UNL     1      -6.244  -2.542  -0.481  0.00  0.00    -0.263 NA
ATOM     26  C   UNL     1      -4.389  -1.059  -0.031  0.00  0.00    +0.057 A 
ATOM     27  C   UNL     1      -3.669  -2.114   0.520  0.00  0.00    +0.016 A 
ATOM     28  C   UNL     1      -5.661  -1.323  -0.513  0.00  0.00    +0.124 A 
ATOM     29  C   UNL     1      -4.236  -3.383   0.571  0.00  0.00    +0.020 A 
ATOM     30  C   UNL     1      -5.514  -3.543   0.062  0.00  0.00    +0.111 A 
ENDBRANCH  25  26
ENDBRANCH  17  24
ENDBRANCH   9  17
TORSDOF 6
