REMARK  Name = 25338953
REMARK  7 active torsions:
REMARK  status: ('A' for Active; 'I' for Inactive)
REMARK    1  A    between atoms: S_1  and  N_7
REMARK    2  A    between atoms: S_1  and  C_18
REMARK    3  A    between atoms: O_5  and  C_15
REMARK    4  A    between atoms: O_5  and  C_25
REMARK    5  A    between atoms: N_8  and  C_16
REMARK    6  A    between atoms: C_10  and  C_15
REMARK    7  A    between atoms: C_16  and  C_19
REMARK                            x       y       z     vdW  Elec       q    Type
REMARK                         _______ _______ _______ _____ _____    ______ ____
ROOT
ATOM      7  N   UNL     1       1.787   0.012   0.300  0.00  0.00    -0.156 NA
ATOM      8  N   UNL     1      -1.375  -1.821  -0.523  0.00  0.00    -0.328 N 
ATOM      9  N   UNL     1      -0.641  -3.307   0.976  0.00  0.00    -0.240 NA
ATOM     10  C   UNL     1       2.527  -1.225   0.747  0.00  0.00    +0.194 C 
ATOM     11  C   UNL     1       1.611  -2.248   1.449  0.00  0.00    +0.089 C 
ATOM     12  C   UNL     1       0.611  -0.225  -0.623  0.00  0.00    +0.165 C 
ATOM     13  C   UNL     1      -0.134  -1.405  -0.144  0.00  0.00    +0.057 A 
ATOM     14  C   UNL     1       0.297  -2.334   0.771  0.00  0.00    +0.066 A 
ATOM     17  C   UNL     1      -1.637  -2.970   0.180  0.00  0.00    +0.200 A 
ENDROOT
BRANCH   7   1
ATOM      1  S   UNL     1       1.559   1.216   1.502  0.00  0.00    +0.068 S 
ATOM      3  O   UNL     1       2.812   1.442   2.188  0.00  0.00    -0.152 OA
ATOM      4  O   UNL     1       0.348   0.920   2.237  0.00  0.00    -0.152 OA
BRANCH   1  18
ATOM      2  S   UNL     1       2.599   3.185  -0.401  0.00  0.00    -0.077 S 
ATOM     18  C   UNL     1       1.243   2.618   0.477  0.00  0.00    +0.143 A 
ATOM     20  C   UNL     1       0.115   3.369   0.228  0.00  0.00    +0.036 A 
ATOM     23  C   UNL     1       0.368   4.423  -0.696  0.00  0.00    +0.010 A 
ATOM     24  C   UNL     1       1.679   4.438  -1.118  0.00  0.00    +0.047 A 
ENDBRANCH   1  18
ENDBRANCH   7   1
BRANCH  10  15
ATOM      6  O   UNL     1       3.027  -2.934  -0.871  0.00  0.00    -0.249 OA
ATOM     15  C   UNL     1       3.193  -1.791  -0.468  0.00  0.00    +0.326 C 
BRANCH  15   5
ATOM      5  O   UNL     1       3.992  -0.842  -1.034  0.00  0.00    -0.467 OA
ATOM     25  C   UNL     1       4.693  -1.251  -2.212  0.00  0.00    +0.280 C 
ENDBRANCH  15   5
ENDBRANCH  10  15
BRANCH   8  16
ATOM     16  C   UNL     1      -2.253  -1.193  -1.480  0.00  0.00    +0.158 C 
BRANCH  16  19
ATOM     19  C   UNL     1      -3.370  -0.406  -0.839  0.00  0.00    -0.028 A 
ATOM     21  C   UNL     1      -4.482  -1.070  -0.322  0.00  0.00    +0.005 A 
ATOM     22  C   UNL     1      -3.291   0.984  -0.765  0.00  0.00    +0.005 A 
ATOM     26  C   UNL     1      -5.515  -0.344   0.271  0.00  0.00    +0.000 A 
ATOM     27  C   UNL     1      -4.324   1.711  -0.173  0.00  0.00    +0.000 A 
ATOM     28  C   UNL     1      -5.436   1.047   0.345  0.00  0.00    +0.000 A 
ENDBRANCH  16  19
ENDBRANCH   8  16
TORSDOF 6
