REMARK  Name = 71693248
REMARK  6 active torsions:
REMARK  status: ('A' for Active; 'I' for Inactive)
REMARK    1  A    between atoms: O_2  and  C_10
REMARK    2  A    between atoms: N_6  and  C_15
REMARK    3  A    between atoms: CA_7  and  C_10
REMARK    4  A    between atoms: C_8  and  C_9
REMARK    5  A    between atoms: C_18  and  C_19
REMARK    6  A    between atoms: C_19  and  C_20
REMARK                            x       y       z     vdW  Elec       q    Type
REMARK                         _______ _______ _______ _____ _____    ______ ____
ROOT
ATOM      9  C   UNL     1      -2.142  -0.394  -0.079  0.00  0.00    -0.017 A 
ATOM     13  C   UNL     1      -1.696  -0.696   1.207  0.00  0.00    +0.008 A 
ATOM     14  C   UNL     1      -1.235  -0.337  -1.137  0.00  0.00    +0.008 A 
ATOM     15  C   UNL     1       0.566  -0.885   0.378  0.00  0.00    +0.033 A 
ATOM     16  C   UNL     1      -0.342  -0.942   1.435  0.00  0.00    +0.023 A 
ATOM     17  C   UNL     1       0.119  -0.582  -0.909  0.00  0.00    +0.023 A 
ENDROOT
BRANCH   9   8
ATOM      1  O   UNL     1      -4.329  -1.328  -0.015  0.00  0.00    -0.361 OA
ATOM      3  O   UNL     1      -7.657   0.005   0.095  0.00  0.00    -0.273 OA
ATOM      5  N   UNL     1      -5.641   1.062   0.390  0.00  0.00    -0.306 N 
ATOM      7  CA  UNL     1      -4.190   1.001   0.539  0.00  0.00    +0.131 C 
ATOM      8  C   UNL     1      -3.611  -0.128  -0.328  0.00  0.00    +0.171 C 
ATOM     11  C   UNL     1      -5.678  -1.246  -0.424  0.00  0.00    +0.256 C 
ATOM     12  C   UNL     1      -6.427  -0.021   0.064  0.00  0.00    +0.239 C 
ATOM     26  H   UNL     1      -6.117   1.897   0.719  0.00  0.00    +0.149 HD
BRANCH   7  10
ATOM     10  C   UNL     1      -3.581   2.362   0.212  0.00  0.00    +0.181 C 
BRANCH  10   2
ATOM      2  O   UNL     1      -3.838   2.654  -1.149  0.00  0.00    -0.393 OA
ATOM     27  H   UNL     1      -3.443   3.523  -1.336  0.00  0.00    +0.209 HD
ENDBRANCH  10   2
ENDBRANCH   7  10
ENDBRANCH   9   8
BRANCH  15   6
ATOM      4  O   UNL     1       2.889  -0.887  -1.523  0.00  0.00    -0.275 OA
ATOM      6  N   UNL     1       1.920  -1.131   0.607  0.00  0.00    -0.285 N 
ATOM     18  C   UNL     1       2.974  -1.119  -0.322  0.00  0.00    +0.222 C 
ATOM     28  H   UNL     1       2.155  -1.340   1.574  0.00  0.00    +0.155 HD
BRANCH  18  19
ATOM     19  C   UNL     1       4.299  -1.442   0.352  0.00  0.00    +0.131 C 
BRANCH  19  20
ATOM     20  C   UNL     1       5.321  -0.343   0.222  0.00  0.00    -0.039 A 
ATOM     21  C   UNL     1       6.195  -0.327  -0.865  0.00  0.00    +0.004 A 
ATOM     22  C   UNL     1       5.392   0.660   1.188  0.00  0.00    +0.004 A 
ATOM     23  C   UNL     1       7.141   0.691  -0.985  0.00  0.00    +0.000 A 
ATOM     24  C   UNL     1       6.338   1.679   1.068  0.00  0.00    +0.000 A 
ATOM     25  C   UNL     1       7.212   1.694  -0.019  0.00  0.00    +0.000 A 
ENDBRANCH  19  20
ENDBRANCH  18  19
ENDBRANCH  15   6
TORSDOF 6
