REMARK  Name = 75536569
REMARK  8 active torsions:
REMARK  status: ('A' for Active; 'I' for Inactive)
REMARK    1  A    between atoms: O_2  and  C_8
REMARK    2  A    between atoms: N_4  and  C_16
REMARK    3  A    between atoms: N_5  and  C_10
REMARK    4  A    between atoms: N_5  and  C_18
REMARK    5  A    between atoms: C_7  and  C_16
REMARK    6  A    between atoms: C_9  and  C_17
REMARK    7  A    between atoms: C_18  and  C_19
REMARK    8  A    between atoms: C_22  and  C_25
REMARK                            x       y       z     vdW  Elec       q    Type
REMARK                         _______ _______ _______ _____ _____    ______ ____
ROOT
ATOM      1  O   UNL     1       1.153  -0.812  -0.796  0.00  0.00    -0.371 OA
ATOM      7  C   UNL     1       1.547   0.184   0.163  0.00  0.00    +0.165 C 
ATOM      8  C   UNL     1       0.266   0.637   0.850  0.00  0.00    +0.164 C 
ATOM     10  C   UNL     1      -0.725   0.554  -0.297  0.00  0.00    +0.111 C 
ATOM     15  C   UNL     1      -0.267  -0.714  -0.998  0.00  0.00    +0.181 C 
ENDROOT
BRANCH   8   2
ATOM      2  O   UNL     1       0.384   1.945   1.376  0.00  0.00    -0.388 OA
ATOM     28  H   UNL     1       0.628   2.545   0.651  0.00  0.00    +0.210 HD
ENDBRANCH   8   2
BRANCH  10   5
ATOM      5  N   UNL     1      -2.112   0.494   0.134  0.00  0.00    -0.305 NA
ATOM     27  H   UNL     1      -2.267   1.196   0.858  0.00  0.00    +0.123 HD
BRANCH   5  18
ATOM     18  C   UNL     1      -3.019   0.754  -0.977  0.00  0.00    +0.116 C 
BRANCH  18  19
ATOM     19  C   UNL     1      -4.462   0.679  -0.553  0.00  0.00    -0.032 A 
ATOM     20  C   UNL     1      -5.065  -0.561  -0.344  0.00  0.00    +0.023 A 
ATOM     21  C   UNL     1      -5.195   1.851  -0.368  0.00  0.00    +0.005 A 
ATOM     22  C   UNL     1      -6.401  -0.629   0.051  0.00  0.00    +0.052 A 
ATOM     23  C   UNL     1      -6.531   1.784   0.027  0.00  0.00    +0.002 A 
ATOM     24  C   UNL     1      -7.134   0.543   0.236  0.00  0.00    +0.019 A 
BRANCH  22  25
ATOM      6  N   UNL     1      -7.523  -2.930   0.441  0.00  0.00    -0.191 NA
ATOM     25  C   UNL     1      -7.020  -1.899   0.266  0.00  0.00    +0.099 C 
ENDBRANCH  22  25
ENDBRANCH  18  19
ENDBRANCH   5  18
ENDBRANCH  10   5
BRANCH   7  16
ATOM     16  C   UNL     1       2.567  -0.403   1.123  0.00  0.00    +0.138 C 
BRANCH  16   4
ATOM      3  O   UNL     1       4.941   1.180   0.584  0.00  0.00    -0.276 OA
ATOM      4  N   UNL     1       3.754  -0.819   0.433  0.00  0.00    -0.313 N 
ATOM     17  C   UNL     1       4.849   0.010   0.219  0.00  0.00    +0.216 C 
ATOM     26  H   UNL     1       3.784  -1.775   0.089  0.00  0.00    +0.149 HD
BRANCH  17   9
ATOM      9  C   UNL     1       5.963  -0.682  -0.505  0.00  0.00    +0.075 C 
ATOM     11  C   UNL     1       6.792   0.323  -1.306  0.00  0.00    +0.013 C 
ATOM     12  C   UNL     1       6.926  -1.330   0.496  0.00  0.00    +0.013 C 
ATOM     13  C   UNL     1       8.009   0.599  -0.435  0.00  0.00    +0.001 C 
ATOM     14  C   UNL     1       8.303  -0.757   0.180  0.00  0.00    +0.001 C 
ENDBRANCH  17   9
ENDBRANCH  16   4
ENDBRANCH   7  16
TORSDOF 8
