REMARK  Name = 11882931
REMARK  14 active torsions:
REMARK  status: ('A' for Active; 'I' for Inactive)
REMARK    1  A    between atoms: O_2  and  C_16
REMARK    2  A    between atoms: O_3  and  C_21
REMARK    3  A    between atoms: O_6  and  C_29
REMARK    4  A    between atoms: O_6  and  C_33
REMARK    5  A    between atoms: O_7  and  C_36
REMARK    6  A    between atoms: O_7  and  C_37
REMARK    7  A    between atoms: N_9  and  C_27
REMARK    8  A    between atoms: C_11  and  C_19
REMARK    9  A    between atoms: C_13  and  C_21
REMARK   10  A    between atoms: C_13  and  C_22
REMARK   11  A    between atoms: C_14  and  C_24
REMARK   12  A    between atoms: C_24  and  C_25
REMARK   13  A    between atoms: C_27  and  C_29
REMARK   14  A    between atoms: C_28  and  C_30
REMARK                            x       y       z     vdW  Elec       q    Type
REMARK                         _______ _______ _______ _____ _____    ______ ____
ROOT
ATOM      1  S   UNL     1       0.140   2.286  -0.378  0.00  0.00    -0.057 S 
ATOM      5  O   UNL     1       3.069  -1.165   0.711  0.00  0.00    -0.270 OA
ATOM      8  N   UNL     1       0.299  -0.179   0.389  0.00  0.00    -0.229 NA
ATOM     10  N   UNL     1       2.379   0.987   0.041  0.00  0.00    -0.261 N 
ATOM     11  C   UNL     1      -3.537  -0.168   0.782  0.00  0.00    -0.019 C 
ATOM     12  C   UNL     1      -3.733   0.889  -0.393  0.00  0.00    +0.011 C 
ATOM     13  C   UNL     1      -5.199   1.414  -0.645  0.00  0.00    +0.021 C 
ATOM     14  C   UNL     1      -2.119  -0.875   0.578  0.00  0.00    +0.054 C 
ATOM     15  C   UNL     1      -4.642  -1.252   0.690  0.00  0.00    +0.010 C 
ATOM     16  C   UNL     1      -6.180   0.208  -0.662  0.00  0.00    +0.123 C 
ATOM     17  C   UNL     1      -2.664   2.019  -0.325  0.00  0.00    +0.049 C 
ATOM     18  C   UNL     1      -6.050  -0.689   0.563  0.00  0.00    +0.032 C 
ATOM     19  C   UNL     1      -3.592   0.479   2.188  0.00  0.00    +0.012 C 
ATOM     20  C   UNL     1      -1.043   0.141   0.292  0.00  0.00    +0.058 A 
ATOM     22  C   UNL     1      -5.263   2.082  -2.048  0.00  0.00    +0.016 C 
ATOM     23  C   UNL     1      -1.309   1.428  -0.129  0.00  0.00    +0.015 A 
ATOM     26  C   UNL     1       1.014   0.876   0.067  0.00  0.00    +0.165 A 
ATOM     28  C   UNL     1       3.310  -0.016   0.357  0.00  0.00    +0.250 C 
ATOM     41  H   UNL     1       2.703   1.891  -0.287  0.00  0.00    +0.157 HD
ENDROOT
BRANCH  28  30
ATOM     30  C   UNL     1       4.738   0.372   0.213  0.00  0.00    +0.037 A 
ATOM     31  C   UNL     1       5.670  -0.608  -0.055  0.00  0.00    +0.016 A 
ATOM     32  C   UNL     1       5.083   1.700   0.352  0.00  0.00    +0.016 A 
ATOM     34  C   UNL     1       7.009  -0.243  -0.191  0.00  0.00    +0.046 A 
ATOM     35  C   UNL     1       6.422   2.065   0.216  0.00  0.00    +0.046 A 
ATOM     36  C   UNL     1       7.386   1.093  -0.055  0.00  0.00    +0.120 A 
BRANCH  36   7
ATOM      7  O   UNL     1       8.693   1.448  -0.186  0.00  0.00    -0.495 OA
ATOM     37  C   UNL     1       9.008   2.832  -0.035  0.00  0.00    +0.277 C 
ENDBRANCH  36   7
ENDBRANCH  28  30
BRANCH  16   2
ATOM      2  O   UNL     1      -7.530   0.660  -0.760  0.00  0.00    -0.391 OA
ATOM     38  H   UNL     1      -7.688   0.941  -1.676  0.00  0.00    +0.210 HD
ENDBRANCH  16   2
BRANCH  13  21
ATOM     21  C   UNL     1      -5.672   2.495   0.351  0.00  0.00    +0.165 C 
BRANCH  21   3
ATOM      3  O   UNL     1      -6.984   2.869  -0.008  0.00  0.00    -0.394 OA
ATOM     39  H   UNL     1      -6.924   3.580  -0.668  0.00  0.00    +0.209 HD
ENDBRANCH  21   3
ENDBRANCH  13  21
BRANCH  14  24
ATOM     24  C   UNL     1      -1.709  -1.823   1.713  0.00  0.00    +0.106 C 
BRANCH  24  25
ATOM      4  O   UNL     1       0.589  -2.498   2.060  0.00  0.00    -0.276 OA
ATOM      9  N   UNL     1      -0.597  -3.353   0.253  0.00  0.00    -0.313 N 
ATOM     25  C   UNL     1      -0.439  -2.576   1.392  0.00  0.00    +0.214 C 
ATOM     40  H   UNL     1      -1.502  -3.397  -0.205  0.00  0.00    +0.149 HD
BRANCH   9  27
ATOM     27  C   UNL     1       0.456  -4.179  -0.292  0.00  0.00    +0.132 C 
BRANCH  27  29
ATOM     29  C   UNL     1       1.297  -3.417  -1.300  0.00  0.00    +0.178 C 
BRANCH  29   6
ATOM      6  O   UNL     1       0.477  -3.008  -2.386  0.00  0.00    -0.381 OA
ATOM     33  C   UNL     1       1.223  -2.293  -3.362  0.00  0.00    +0.194 C 
ENDBRANCH  29   6
ENDBRANCH  27  29
ENDBRANCH   9  27
ENDBRANCH  24  25
ENDBRANCH  14  24
TORSDOF 10
