REMARK  Name = 11884511
REMARK  7 active torsions:
REMARK  status: ('A' for Active; 'I' for Inactive)
REMARK    1  A    between atoms: O_6  and  C_29
REMARK    2  A    between atoms: N_9  and  C_17
REMARK    3  A    between atoms: N_10  and  C_20
REMARK    4  A    between atoms: C_17  and  C_21
REMARK    5  A    between atoms: C_18  and  C_19
REMARK    6  A    between atoms: C_19  and  C_22
REMARK    7  A    between atoms: C_22  and  C_29
REMARK                            x       y       z     vdW  Elec       q    Type
REMARK                         _______ _______ _______ _____ _____    ______ ____
ROOT
ATOM      3  O   UNL     1       0.706   1.996  -0.301  0.00  0.00    -0.273 OA
ATOM      4  O   UNL     1      -3.080  -0.658   0.494  0.00  0.00    -0.252 OA
ATOM      5  O   UNL     1       3.180   0.634  -1.609  0.00  0.00    -0.276 OA
ATOM      8  N   UNL     1       2.308  -0.054   0.421  0.00  0.00    -0.288 N 
ATOM      9  N   UNL     1      -0.988  -1.488   0.963  0.00  0.00    -0.275 N 
ATOM     10  N   UNL     1      -1.235   0.733   0.108  0.00  0.00    -0.192 N 
ATOM     11  C   UNL     1       0.450  -1.345   0.972  0.00  0.00    +0.109 C 
ATOM     12  C   UNL     1       0.966  -0.374  -0.069  0.00  0.00    +0.183 C 
ATOM     13  C   UNL     1       1.036  -0.798   2.275  0.00  0.00    +0.044 C 
ATOM     14  C   UNL     1       2.434  -0.366   1.845  0.00  0.00    +0.110 C 
ATOM     15  C   UNL     1       0.155   0.912  -0.097  0.00  0.00    +0.250 C 
ATOM     16  C   UNL     1      -1.857  -0.478   0.535  0.00  0.00    +0.316 C 
ATOM     18  C   UNL     1       3.326   0.382  -0.412  0.00  0.00    +0.217 C 
ENDROOT
BRANCH  10  20
ATOM      1 CL   UNL     1      -5.562   3.279   1.256  0.00  0.00    -0.081 Cl
ATOM      2  F   UNL     1      -4.526   5.126  -0.818  0.00  0.00    -0.204 F 
ATOM     20  C   UNL     1      -2.094   1.877  -0.129  0.00  0.00    +0.047 A 
ATOM     23  C   UNL     1      -3.272   2.008   0.594  0.00  0.00    +0.047 A 
ATOM     24  C   UNL     1      -1.728   2.822  -1.076  0.00  0.00    +0.027 A 
ATOM     27  C   UNL     1      -4.099   3.108   0.365  0.00  0.00    +0.078 A 
ATOM     28  C   UNL     1      -2.555   3.921  -1.306  0.00  0.00    +0.041 A 
ATOM     32  C   UNL     1      -3.741   4.064  -0.585  0.00  0.00    +0.142 A 
ENDBRANCH  10  20
BRANCH   9  17
ATOM     17  C   UNL     1      -1.516  -2.746   1.479  0.00  0.00    +0.144 C 
BRANCH  17  21
ATOM     21  C   UNL     1      -1.684  -3.719   0.352  0.00  0.00    -0.030 A 
ATOM     25  C   UNL     1      -2.887  -3.767  -0.345  0.00  0.00    +0.005 A 
ATOM     26  C   UNL     1      -0.635  -4.568   0.009  0.00  0.00    +0.005 A 
ATOM     30  C   UNL     1      -3.044  -4.673  -1.395  0.00  0.00    +0.000 A 
ATOM     31  C   UNL     1      -0.792  -5.473  -1.040  0.00  0.00    +0.000 A 
ATOM     33  C   UNL     1      -1.996  -5.526  -1.742  0.00  0.00    +0.000 A 
ENDBRANCH  17  21
ENDBRANCH   9  17
BRANCH  18  19
ATOM     19  C   UNL     1       4.673   0.548   0.245  0.00  0.00    +0.107 C 
BRANCH  19  22
ATOM     22  C   UNL     1       5.687   1.027  -0.775  0.00  0.00    +0.129 C 
BRANCH  22  29
ATOM      7  O   UNL     1       7.314   0.894   1.007  0.00  0.00    -0.251 OA
ATOM     29  C   UNL     1       7.063   1.138  -0.166  0.00  0.00    +0.305 C 
BRANCH  29   6
ATOM      6  O   UNL     1       7.995   1.563  -1.055  0.00  0.00    -0.481 OA
ATOM     34  H   UNL     1       8.883   1.641  -0.646  0.00  0.00    +0.295 HD
ENDBRANCH  29   6
ENDBRANCH  22  29
ENDBRANCH  19  22
ENDBRANCH  18  19
TORSDOF 7
