REMARK  Name = 40781574
REMARK  12 active torsions:
REMARK  status: ('A' for Active; 'I' for Inactive)
REMARK    1  A    between atoms: O_2  and  C_15
REMARK    2  A    between atoms: O_3  and  C_16
REMARK    3  A    between atoms: O_6  and  C_25
REMARK    4  A    between atoms: O_6  and  C_28
REMARK    5  A    between atoms: O_7  and  C_26
REMARK    6  A    between atoms: O_7  and  C_29
REMARK    7  A    between atoms: N_8  and  C_11
REMARK    8  A    between atoms: N_9  and  C_20
REMARK    9  A    between atoms: N_10  and  C_22
REMARK   10  A    between atoms: C_14  and  C_18
REMARK   11  A    between atoms: C_17  and  C_20
REMARK   12  A    between atoms: C_18  and  C_19
REMARK                            x       y       z     vdW  Elec       q    Type
REMARK                         _______ _______ _______ _____ _____    ______ ____
ROOT
ATOM      1  O   UNL     1      -2.648  -0.573   0.532  0.00  0.00    -0.366 OA
ATOM     14  C   UNL     1      -3.693   0.242  -0.029  0.00  0.00    +0.158 C 
ATOM     15  C   UNL     1      -4.632  -0.722  -0.734  0.00  0.00    +0.175 C 
ATOM     16  C   UNL     1      -4.571  -1.928   0.181  0.00  0.00    +0.176 C 
ATOM     17  C   UNL     1      -3.102  -1.945   0.587  0.00  0.00    +0.167 C 
ENDROOT
BRANCH  15   2
ATOM      2  O   UNL     1      -5.932  -0.190  -0.872  0.00  0.00    -0.387 OA
ATOM     31  H   UNL     1      -6.501  -0.897  -1.220  0.00  0.00    +0.210 HD
ENDBRANCH  15   2
BRANCH  16   3
ATOM      3  O   UNL     1      -5.352  -1.700   1.354  0.00  0.00    -0.387 OA
ATOM     32  H   UNL     1      -5.254  -2.481   1.925  0.00  0.00    +0.210 HD
ENDBRANCH  16   3
BRANCH  14  18
ATOM     18  C   UNL     1      -3.089   1.281  -0.957  0.00  0.00    +0.130 C 
BRANCH  18  19
ATOM      4  O   UNL     1      -3.097   3.470   0.072  0.00  0.00    -0.276 OA
ATOM      8  N   UNL     1      -1.148   2.205   0.116  0.00  0.00    -0.312 N 
ATOM     19  C   UNL     1      -2.476   2.447  -0.205  0.00  0.00    +0.216 C 
ATOM     30  H   UNL     1      -0.716   1.325  -0.154  0.00  0.00    +0.149 HD
BRANCH   8  11
ATOM     11  C   UNL     1      -0.324   3.152   0.831  0.00  0.00    +0.073 C 
ATOM     12  C   UNL     1       0.872   2.700   1.617  0.00  0.00    +0.024 C 
ATOM     13  C   UNL     1      -0.342   3.221   2.330  0.00  0.00    +0.024 C 
ENDBRANCH   8  11
ENDBRANCH  18  19
ENDBRANCH  14  18
BRANCH  17  20
ATOM     20  C   UNL     1      -2.232  -2.762  -0.358  0.00  0.00    +0.140 C 
BRANCH  20   9
ATOM      5  O   UNL     1      -0.225  -0.873  -1.140  0.00  0.00    -0.253 OA
ATOM      9  N   UNL     1      -0.860  -2.747   0.058  0.00  0.00    -0.297 N 
ATOM     10  N   UNL     1       1.324  -2.022   0.198  0.00  0.00    -0.269 N 
ATOM     21  C   UNL     1       0.069  -1.784  -0.370  0.00  0.00    +0.304 C 
ATOM     33  H   UNL     1      -0.548  -3.465   0.705  0.00  0.00    +0.150 HD
ATOM     34  H   UNL     1       1.399  -2.825   0.819  0.00  0.00    +0.156 HD
BRANCH  10  22
ATOM     22  C   UNL     1       2.514  -1.280   0.016  0.00  0.00    +0.042 A 
ATOM     23  C   UNL     1       3.684  -1.669   0.668  0.00  0.00    +0.069 A 
ATOM     24  C   UNL     1       2.518  -0.161  -0.816  0.00  0.00    +0.069 A 
ATOM     25  C   UNL     1       3.692   0.570  -0.996  0.00  0.00    +0.125 A 
ATOM     26  C   UNL     1       4.859  -0.938   0.488  0.00  0.00    +0.125 A 
ATOM     27  C   UNL     1       4.863   0.182  -0.344  0.00  0.00    +0.091 A 
BRANCH  25   6
ATOM      6  O   UNL     1       3.696   1.663  -1.808  0.00  0.00    -0.495 OA
ATOM     28  C   UNL     1       2.465   2.004  -2.443  0.00  0.00    +0.277 C 
ENDBRANCH  25   6
BRANCH  26   7
ATOM      7  O   UNL     1       6.001  -1.317   1.125  0.00  0.00    -0.495 OA
ATOM     29  C   UNL     1       7.165  -0.524   0.895  0.00  0.00    +0.277 C 
ENDBRANCH  26   7
ENDBRANCH  10  22
ENDBRANCH  20   9
ENDBRANCH  17  20
TORSDOF 10
