REMARK  Name = 75536743
REMARK  6 active torsions:
REMARK  status: ('A' for Active; 'I' for Inactive)
REMARK    1  A    between atoms: O_2  and  C_9
REMARK    2  A    between atoms: N_5  and  C_8
REMARK    3  A    between atoms: N_5  and  C_13
REMARK    4  A    between atoms: N_5  and  C_14
REMARK    5  A    between atoms: N_6  and  C_12
REMARK    6  A    between atoms: C_10  and  C_12
REMARK                            x       y       z     vdW  Elec       q    Type
REMARK                         _______ _______ _______ _____ _____    ______ ____
ROOT
ATOM     12  C   UNL     1      -0.314  -0.473  -1.167  0.00  0.00    +0.140 C 
ENDROOT
BRANCH  12   6
ATOM      3  O   UNL     1       5.821   0.762   0.259  0.00  0.00    -0.377 OA
ATOM      4  O   UNL     1       1.639  -1.884   0.286  0.00  0.00    -0.253 OA
ATOM      6  N   UNL     1       0.996   0.026  -0.810  0.00  0.00    -0.297 N 
ATOM      7  N   UNL     1       3.134  -0.113   0.188  0.00  0.00    -0.281 N 
ATOM     15  C   UNL     1       1.906  -0.737  -0.088  0.00  0.00    +0.302 C 
ATOM     16  C   UNL     1       3.473   1.291  -0.086  0.00  0.00    +0.137 C 
ATOM     17  C   UNL     1       4.150  -0.841   0.950  0.00  0.00    +0.137 C 
ATOM     18  C   UNL     1       4.898   1.411  -0.616  0.00  0.00    +0.179 C 
ATOM     19  C   UNL     1       5.533  -0.635   0.352  0.00  0.00    +0.179 C 
ATOM     20  H   UNL     1       1.204   0.970  -1.101  0.00  0.00    +0.150 HD
ENDBRANCH  12   6
BRANCH  12  10
ATOM      1  O   UNL     1      -1.458   1.276   0.049  0.00  0.00    -0.371 OA
ATOM      8  C   UNL     1      -3.597   0.297   0.382  0.00  0.00    +0.113 C 
ATOM      9  C   UNL     1      -2.739  -0.652  -0.434  0.00  0.00    +0.164 C 
ATOM     10  C   UNL     1      -1.342  -0.149  -0.098  0.00  0.00    +0.165 C 
ATOM     11  C   UNL     1      -2.850   1.608   0.200  0.00  0.00    +0.181 C 
BRANCH   8   5
ATOM      5  N   UNL     1      -4.978   0.366  -0.065  0.00  0.00    -0.301 NA
ATOM     13  C   UNL     1      -5.717   1.387   0.683  0.00  0.00    +0.105 C 
ATOM     14  C   UNL     1      -5.637  -0.936   0.076  0.00  0.00    +0.105 C 
ENDBRANCH   8   5
BRANCH   9   2
ATOM      2  O   UNL     1      -2.917  -2.005  -0.061  0.00  0.00    -0.388 OA
ATOM     21  H   UNL     1      -2.739  -2.085   0.891  0.00  0.00    +0.210 HD
ENDBRANCH   9   2
ENDBRANCH  12  10
TORSDOF 4
