REMARK  Name = 40474964
REMARK  8 active torsions:
REMARK  status: ('A' for Active; 'I' for Inactive)
REMARK    1  A    between atoms: O_3  and  C_18
REMARK    2  A    between atoms: O_3  and  C_20
REMARK    3  A    between atoms: N_5  and  C_14
REMARK    4  A    between atoms: N_6  and  C_15
REMARK    5  A    between atoms: N_10  and  C_21
REMARK    6  A    between atoms: N_11  and  C_26
REMARK    7  A    between atoms: N_11  and  C_32
REMARK    8  A    between atoms: N_11  and  C_33
REMARK                            x       y       z     vdW  Elec       q    Type
REMARK                         _______ _______ _______ _____ _____    ______ ____
ROOT
ATOM      1  O   UNL     1      -1.207  -3.463   0.405  0.00  0.00    -0.370 OA
ATOM      2  O   UNL     1      -0.494  -1.898  -2.203  0.00  0.00    -0.370 OA
ATOM     12  C   UNL     1      -0.224  -1.666  -0.808  0.00  0.00    +0.176 C 
ATOM     13  C   UNL     1      -1.448  -2.116  -0.035  0.00  0.00    +0.172 C 
ATOM     14  C   UNL     1       0.887  -2.585  -0.334  0.00  0.00    +0.171 C 
ATOM     15  C   UNL     1      -2.562  -2.090  -1.057  0.00  0.00    +0.131 C 
ATOM     16  C   UNL     1       0.119  -3.855   0.023  0.00  0.00    +0.190 C 
ATOM     17  C   UNL     1      -1.827  -2.408  -2.347  0.00  0.00    +0.185 C 
ENDROOT
BRANCH  15   6
ATOM      4  O   UNL     1      -4.911  -1.249   0.350  0.00  0.00    -0.252 OA
ATOM      6  N   UNL     1      -3.185  -0.789  -1.117  0.00  0.00    -0.292 N 
ATOM     10  N   UNL     1      -4.708   0.865  -0.650  0.00  0.00    -0.269 N 
ATOM     19  C   UNL     1      -4.337  -0.458  -0.394  0.00  0.00    +0.304 C 
ATOM     34  H   UNL     1      -2.730  -0.060  -1.659  0.00  0.00    +0.151 HD
ATOM     35  H   UNL     1      -4.122   1.387  -1.298  0.00  0.00    +0.156 HD
BRANCH  10  21
ATOM     21  C   UNL     1      -5.809   1.576  -0.118  0.00  0.00    +0.035 A 
ATOM     24  C   UNL     1      -6.027   2.903  -0.491  0.00  0.00    +0.023 A 
ATOM     25  C   UNL     1      -6.676   0.952   0.779  0.00  0.00    +0.023 A 
ATOM     29  C   UNL     1      -7.112   3.605   0.034  0.00  0.00    +0.002 A 
ATOM     30  C   UNL     1      -7.761   1.654   1.303  0.00  0.00    +0.002 A 
ATOM     31  C   UNL     1      -7.979   2.981   0.931  0.00  0.00    +0.000 A 
ENDBRANCH  10  21
ENDBRANCH  15   6
BRANCH  14   5
ATOM      5  N   UNL     1       1.678  -1.958   0.800  0.00  0.00    -0.187 N 
ATOM      7  N   UNL     1       1.304  -2.117   2.077  0.00  0.00    -0.041 NA
ATOM      8  N   UNL     1       3.145  -0.865   1.964  0.00  0.00    -0.071 NA
ATOM      9  N   UNL     1       2.205  -1.447   2.785  0.00  0.00    -0.020 NA
ATOM     18  C   UNL     1       2.799  -1.194   0.740  0.00  0.00    +0.342 A 
BRANCH  18   3
ATOM      3  O   UNL     1       3.420  -0.852  -0.373  0.00  0.00    -0.423 OA
BRANCH   3  20
ATOM     20  C   UNL     1       4.574  -0.055  -0.298  0.00  0.00    +0.134 A 
ATOM     22  C   UNL     1       4.465   1.335  -0.334  0.00  0.00    +0.069 A 
ATOM     23  C   UNL     1       5.829  -0.654  -0.185  0.00  0.00    +0.046 A 
ATOM     26  C   UNL     1       5.612   2.126  -0.259  0.00  0.00    +0.033 A 
ATOM     27  C   UNL     1       6.975   0.137  -0.110  0.00  0.00    +0.005 A 
ATOM     28  C   UNL     1       6.866   1.527  -0.146  0.00  0.00    +0.023 A 
BRANCH  26  11
ATOM     11  N   UNL     1       5.501   3.532  -0.295  0.00  0.00    -0.336 N 
ATOM     32  C   UNL     1       6.686   4.363  -0.216  0.00  0.00    +0.129 C 
ATOM     33  C   UNL     1       4.203   4.163  -0.419  0.00  0.00    +0.129 C 
ENDBRANCH  26  11
ENDBRANCH   3  20
ENDBRANCH  18   3
ENDBRANCH  14   5
TORSDOF 6
