REMARK  Name = 51137309
REMARK  4 active torsions:
REMARK  status: ('A' for Active; 'I' for Inactive)
REMARK    1  A    between atoms: N_4  and  C_12
REMARK    2  A    between atoms: C_8  and  C_13
REMARK    3  A    between atoms: C_12  and  C_14
REMARK    4  A    between atoms: C_17  and  C_21
REMARK                            x       y       z     vdW  Elec       q    Type
REMARK                         _______ _______ _______ _____ _____    ______ ____
ROOT
ATOM      4  N   UNL     1      -1.195  -0.956  -0.262  0.00  0.00    -0.297 NA
ATOM      8  C   UNL     1       0.833  -1.930   0.400  0.00  0.00    +0.092 C 
ATOM      9  C   UNL     1       0.089  -1.379  -0.824  0.00  0.00    +0.097 C 
ATOM     10  C   UNL     1       0.189  -1.215   1.601  0.00  0.00    +0.029 C 
ATOM     11  C   UNL     1      -0.854  -0.286   0.994  0.00  0.00    +0.085 C 
ENDROOT
BRANCH   8  13
ATOM      1  O   UNL     1       2.813  -0.506   0.179  0.00  0.00    -0.420 OA
ATOM      5  N   UNL     1       3.271  -2.692   0.305  0.00  0.00    -0.112 NA
ATOM      6  N   UNL     1       4.468  -2.011   0.184  0.00  0.00    -0.107 NA
ATOM     13  C   UNL     1       2.333  -1.774   0.297  0.00  0.00    +0.222 A 
ATOM     17  C   UNL     1       4.152  -0.739   0.113  0.00  0.00    +0.248 A 
BRANCH  17  21
ATOM      7  N   UNL     1       6.608   2.682  -0.279  0.00  0.00    -0.263 NA
ATOM     21  C   UNL     1       4.985   0.421  -0.019  0.00  0.00    +0.041 A 
ATOM     23  C   UNL     1       6.366   0.284  -0.093  0.00  0.00    +0.033 A 
ATOM     24  C   UNL     1       4.414   1.688  -0.075  0.00  0.00    +0.033 A 
ATOM     25  C   UNL     1       7.127   1.435  -0.222  0.00  0.00    +0.111 A 
ATOM     26  C   UNL     1       5.261   2.776  -0.204  0.00  0.00    +0.111 A 
ENDBRANCH  17  21
ENDBRANCH   8  13
BRANCH   4  12
ATOM     12  C   UNL     1      -1.939  -0.092  -1.166  0.00  0.00    +0.119 C 
BRANCH  12  14
ATOM      2  O   UNL     1      -5.891   2.156   0.790  0.00  0.00    -0.453 OA
ATOM      3  O   UNL     1      -7.351   0.315   0.256  0.00  0.00    -0.453 OA
ATOM     14  C   UNL     1      -3.397  -0.017  -0.798  0.00  0.00    -0.030 A 
ATOM     15  C   UNL     1      -3.892   1.119  -0.152  0.00  0.00    +0.054 A 
ATOM     16  C   UNL     1      -4.249  -1.092  -1.109  0.00  0.00    +0.009 A 
ATOM     18  C   UNL     1      -5.235   1.141   0.163  0.00  0.00    +0.167 A 
ATOM     19  C   UNL     1      -5.605  -1.043  -0.779  0.00  0.00    +0.050 A 
ATOM     20  C   UNL     1      -6.069   0.090  -0.142  0.00  0.00    +0.166 A 
ATOM     22  C   UNL     1      -7.231   1.625   0.845  0.00  0.00    +0.466 C 
ENDBRANCH  12  14
ENDBRANCH   4  12
TORSDOF 4
