REMARK  Name = 26743248
REMARK  7 active torsions:
REMARK  status: ('A' for Active; 'I' for Inactive)
REMARK    1  A    between atoms: N_4  and  C_8
REMARK    2  A    between atoms: C_6  and  C_13
REMARK    3  A    between atoms: C_7  and  C_14
REMARK    4  A    between atoms: C_13  and  C_19
REMARK    5  A    between atoms: C_14  and  C_24
REMARK    6  A    between atoms: C_16  and  C_20
REMARK    7  A    between atoms: C_20  and  C_25
REMARK                            x       y       z     vdW  Elec       q    Type
REMARK                         _______ _______ _______ _____ _____    ______ ____
ROOT
ATOM      3  N   UNL     1       0.719   2.736   0.307  0.00  0.00    -0.316 NA
ATOM      6  C   UNL     1       2.379   0.562  -0.799  0.00  0.00    +0.004 C 
ATOM      7  C   UNL     1       0.896   0.363  -0.403  0.00  0.00    +0.012 C 
ATOM      9  C   UNL     1       2.620   2.048  -1.112  0.00  0.00    +0.019 C 
ATOM     12  C   UNL     1       0.465   1.348   0.697  0.00  0.00    +0.085 C 
ATOM     15  C   UNL     1       2.130   2.967   0.007  0.00  0.00    +0.081 C 
ATOM     27  H   UNL     1       0.429   3.357   1.063  0.00  0.00    +0.122 HD
ENDROOT
BRANCH   6  13
ATOM     13  C   UNL     1       3.377   0.056   0.249  0.00  0.00    +0.099 C 
BRANCH  13  19
ATOM      2  O   UNL     1       5.012  -0.047  -1.531  0.00  0.00    -0.276 OA
ATOM      4  N   UNL     1       5.636  -0.642   0.627  0.00  0.00    -0.312 N 
ATOM     19  C   UNL     1       4.746  -0.205  -0.343  0.00  0.00    +0.214 C 
ATOM     28  H   UNL     1       5.321  -0.751   1.587  0.00  0.00    +0.149 HD
BRANCH   4   8
ATOM      8  C   UNL     1       7.015  -0.969   0.342  0.00  0.00    +0.073 C 
ATOM     10  C   UNL     1       8.063  -0.914   1.415  0.00  0.00    +0.024 C 
ATOM     11  C   UNL     1       8.074   0.094   0.304  0.00  0.00    +0.024 C 
ENDBRANCH   4   8
ENDBRANCH  13  19
ENDBRANCH   6  13
BRANCH   7  14
ATOM     14  C   UNL     1       0.573  -1.074   0.007  0.00  0.00    +0.064 C 
BRANCH  14  24
ATOM      1  O   UNL     1      -2.733  -2.002  -1.076  0.00  0.00    -0.359 OA
ATOM      5  N   UNL     1      -1.368  -1.846  -1.287  0.00  0.00    -0.083 NA
ATOM     24  C   UNL     1      -0.893  -1.367  -0.134  0.00  0.00    +0.084 A 
ATOM     25  C   UNL     1      -3.038  -1.615   0.189  0.00  0.00    +0.138 A 
ATOM     26  C   UNL     1      -1.901  -1.201   0.832  0.00  0.00    +0.071 A 
BRANCH  25  20
ATOM     20  C   UNL     1      -4.449  -1.715   0.583  0.00  0.00    +0.080 C 
BRANCH  20  16
ATOM     16  C   UNL     1      -5.313  -0.591   0.014  0.00  0.00    -0.004 C 
ATOM     17  C   UNL     1      -6.780  -0.774   0.426  0.00  0.00    +0.004 C 
ATOM     18  C   UNL     1      -4.786   0.778   0.464  0.00  0.00    +0.004 C 
ATOM     21  C   UNL     1      -7.656   0.367  -0.086  0.00  0.00    +0.000 C 
ATOM     22  C   UNL     1      -5.665   1.917  -0.048  0.00  0.00    +0.000 C 
ATOM     23  C   UNL     1      -7.124   1.727   0.356  0.00  0.00    +0.000 C 
ENDBRANCH  20  16
ENDBRANCH  25  20
ENDBRANCH  14  24
ENDBRANCH   7  14
TORSDOF 7
