REMARK  Name = 11943112
REMARK  6 active torsions:
REMARK  status: ('A' for Active; 'I' for Inactive)
REMARK    1  A    between atoms: O_5  and  C_26
REMARK    2  A    between atoms: O_5  and  C_33
REMARK    3  A    between atoms: N_7  and  C_11
REMARK    4  A    between atoms: N_9  and  C_25
REMARK    5  A    between atoms: C_22  and  C_24
REMARK    6  A    between atoms: C_25  and  C_29
REMARK                            x       y       z     vdW  Elec       q    Type
REMARK                         _______ _______ _______ _____ _____    ______ ____
ROOT
ATOM      2  O   UNL     1       2.516  -1.031  -2.189  0.00  0.00    -0.273 OA
ATOM      3  O   UNL     1      -0.959  -2.087   1.553  0.00  0.00    -0.270 OA
ATOM      6  N   UNL     1       0.962  -1.120   0.679  0.00  0.00    -0.286 N 
ATOM      8  N   UNL     1       0.247  -0.751  -2.168  0.00  0.00    -0.283 N 
ATOM     10  C   UNL     1       1.544  -0.102  -0.186  0.00  0.00    +0.164 C 
ATOM     11  C   UNL     1       3.854  -0.724   0.747  0.00  0.00    +0.078 C 
ATOM     12  C   UNL     1       2.932   0.387   0.245  0.00  0.00    +0.054 C 
ATOM     13  C   UNL     1       3.138  -1.525   1.829  0.00  0.00    +0.041 C 
ATOM     14  C   UNL     1       1.848  -2.117   1.285  0.00  0.00    +0.111 C 
ATOM     15  C   UNL     1       1.499  -0.690  -1.585  0.00  0.00    +0.238 C 
ATOM     16  C   UNL     1      -0.418  -1.312   0.764  0.00  0.00    +0.249 C 
ATOM     17  C   UNL     1      -1.297  -0.599  -0.201  0.00  0.00    +0.059 A 
ATOM     18  C   UNL     1      -1.001  -0.463  -1.569  0.00  0.00    +0.046 A 
ATOM     20  C   UNL     1      -2.570  -0.237   0.274  0.00  0.00    +0.023 A 
ATOM     21  C   UNL     1      -2.012  -0.029  -2.442  0.00  0.00    +0.024 A 
ATOM     22  C   UNL     1      -3.545   0.240  -0.601  0.00  0.00    -0.014 A 
ATOM     23  C   UNL     1      -3.271   0.331  -1.960  0.00  0.00    +0.010 A 
ATOM     35  H   UNL     1       0.234  -0.928  -3.170  0.00  0.00    +0.155 HD
ENDROOT
BRANCH  22  24
ATOM      1 CL   UNL     1      -6.604   3.944   1.263  0.00  0.00    -0.084 Cl
ATOM     24  C   UNL     1      -4.849   0.614  -0.098  0.00  0.00    +0.025 A 
ATOM     26  C   UNL     1      -5.877  -0.325  -0.001  0.00  0.00    +0.128 A 
ATOM     27  C   UNL     1      -5.075   1.935   0.294  0.00  0.00    +0.032 A 
ATOM     28  C   UNL     1      -7.128   0.055   0.486  0.00  0.00    +0.047 A 
ATOM     30  C   UNL     1      -6.326   2.315   0.781  0.00  0.00    +0.042 A 
ATOM     31  C   UNL     1      -7.352   1.375   0.877  0.00  0.00    +0.023 A 
BRANCH  26   5
ATOM      5  O   UNL     1      -5.686  -1.622  -0.377  0.00  0.00    -0.495 OA
ATOM     33  C   UNL     1      -5.221  -2.523   0.626  0.00  0.00    +0.277 C 
ENDBRANCH  26   5
ENDBRANCH  22  24
BRANCH  11   7
ATOM      4  O   UNL     1       6.266  -0.217  -0.754  0.00  0.00    -0.253 OA
ATOM      7  N   UNL     1       5.091  -0.175   1.249  0.00  0.00    -0.296 N 
ATOM      9  N   UNL     1       7.265   0.575   1.185  0.00  0.00    -0.296 N 
ATOM     19  C   UNL     1       6.212   0.037   0.449  0.00  0.00    +0.300 C 
ATOM     34  H   UNL     1       5.125   0.137   2.215  0.00  0.00    +0.151 HD
ATOM     36  H   UNL     1       7.121   0.769   2.172  0.00  0.00    +0.151 HD
BRANCH   9  25
ATOM     25  C   UNL     1       8.547   0.892   0.601  0.00  0.00    +0.132 C 
BRANCH  25  29
ATOM     29  C   UNL     1       8.522   2.301   0.107  0.00  0.00    -0.016 C 
ATOM     32  C   UNL     1       8.747   2.649  -1.165  0.00  0.00    +0.005 C 
ENDBRANCH  25  29
ENDBRANCH   9  25
ENDBRANCH  11   7
TORSDOF 5
