REMARK  Name = 75537077
REMARK  4 active torsions:
REMARK  status: ('A' for Active; 'I' for Inactive)
REMARK    1  A    between atoms: N_4  and  C_14
REMARK    2  A    between atoms: N_5  and  C_15
REMARK    3  A    between atoms: C_14  and  C_16
REMARK    4  A    between atoms: C_15  and  C_17
REMARK                            x       y       z     vdW  Elec       q    Type
REMARK                         _______ _______ _______ _____ _____    ______ ____
ROOT
ATOM      2  O   UNL     1       1.775  -2.349  -1.312  0.00  0.00    -0.252 OA
ATOM      3  N   UNL     1       0.012  -1.340  -0.132  0.00  0.00    -0.278 N 
ATOM      4  N   UNL     1      -2.331   0.149   0.319  0.00  0.00    -0.293 NA
ATOM      5  N   UNL     1       2.088  -1.165   0.705  0.00  0.00    -0.278 N 
ATOM      8  C   UNL     1      -0.166  -0.679   1.144  0.00  0.00    +0.109 C 
ATOM      9  C   UNL     1      -1.075   0.540   0.990  0.00  0.00    +0.109 C 
ATOM     10  C   UNL     1       1.261  -0.363   1.590  0.00  0.00    +0.133 C 
ATOM     11  C   UNL     1      -1.150  -1.636  -0.944  0.00  0.00    +0.125 C 
ATOM     12  C   UNL     1      -2.061  -0.408  -1.021  0.00  0.00    +0.104 C 
ATOM     13  C   UNL     1       1.345  -1.704  -0.364  0.00  0.00    +0.306 C 
ENDROOT
BRANCH   4  14
ATOM     14  C   UNL     1      -3.234   1.296   0.222  0.00  0.00    +0.147 C 
BRANCH  14  16
ATOM      1  S   UNL     1      -5.543   1.362  -1.317  0.00  0.00    -0.079 S 
ATOM      6  N   UNL     1      -5.319   0.140   0.950  0.00  0.00    -0.251 NA
ATOM     16  C   UNL     1      -4.667   0.873   0.075  0.00  0.00    +0.092 A 
ATOM     19  C   UNL     1      -6.916   0.529  -0.715  0.00  0.00    +0.066 A 
ATOM     20  C   UNL     1      -6.608  -0.056   0.495  0.00  0.00    +0.119 A 
ENDBRANCH  14  16
ENDBRANCH   4  14
BRANCH   5  15
ATOM     15  C   UNL     1       3.524  -1.244   0.861  0.00  0.00    +0.164 C 
BRANCH  15  17
ATOM      7  N   UNL     1       4.690   0.870   1.129  0.00  0.00    -0.258 NA
ATOM     17  C   UNL     1       4.220  -0.056   0.263  0.00  0.00    +0.059 A 
ATOM     18  C   UNL     1       4.346   0.035  -1.113  0.00  0.00    +0.025 A 
ATOM     21  C   UNL     1       4.997   1.148  -1.635  0.00  0.00    +0.003 A 
ATOM     22  C   UNL     1       5.317   1.937   0.586  0.00  0.00    +0.111 A 
ATOM     23  C   UNL     1       5.495   2.122  -0.775  0.00  0.00    +0.020 A 
ENDBRANCH  15  17
ENDBRANCH   5  15
TORSDOF 4
