REMARK  Name = 45784389
REMARK  11 active torsions:
REMARK  status: ('A' for Active; 'I' for Inactive)
REMARK    1  A    between atoms: O_1  and  C_11
REMARK    2  A    between atoms: N_5  and  C_15
REMARK    3  A    between atoms: N_6  and  C_25
REMARK    4  A    between atoms: N_7  and  C_26
REMARK    5  A    between atoms: C_8  and  C_18
REMARK    6  A    between atoms: C_10  and  C_20
REMARK    7  A    between atoms: C_14  and  C_19
REMARK    8  A    between atoms: C_19  and  C_21
REMARK    9  A    between atoms: C_19  and  C_22
REMARK   10  A    between atoms: C_23  and  C_24
REMARK   11  A    between atoms: C_25  and  C_26
REMARK                            x       y       z     vdW  Elec       q    Type
REMARK                         _______ _______ _______ _____ _____    ______ ____
ROOT
ATOM      8  C   UNL     1       0.824  -0.242  -1.657  0.00  0.00    -0.027 C 
ATOM      9  C   UNL     1       0.993  -0.444  -0.114  0.00  0.00    +0.028 C 
ATOM     10  C   UNL     1       2.504  -0.658   0.260  0.00  0.00    +0.012 C 
ATOM     11  C   UNL     1       0.013  -1.526   0.424  0.00  0.00    +0.122 C 
ATOM     12  C   UNL     1      -0.655   0.077  -1.976  0.00  0.00    +0.007 C 
ATOM     13  C   UNL     1       1.674   0.970  -2.102  0.00  0.00    +0.009 C 
ATOM     14  C   UNL     1      -1.454  -1.257   0.013  0.00  0.00    +0.029 C 
ATOM     15  C   UNL     1       3.360   0.531  -0.260  0.00  0.00    +0.076 C 
ATOM     16  C   UNL     1      -1.615  -0.999  -1.486  0.00  0.00    +0.007 C 
ATOM     17  C   UNL     1       3.147   0.832  -1.743  0.00  0.00    +0.023 C 
ATOM     18  C   UNL     1       1.251  -1.491  -2.470  0.00  0.00    +0.011 C 
ATOM     20  C   UNL     1       2.747  -0.835   1.768  0.00  0.00    +0.010 C 
ENDROOT
BRANCH  15   5
ATOM      3  O   UNL     1       5.343   2.539   0.273  0.00  0.00    -0.270 OA
ATOM      5  N   UNL     1       4.774   0.313  -0.035  0.00  0.00    -0.308 N 
ATOM     23  C   UNL     1       5.653   1.352   0.215  0.00  0.00    +0.244 C 
ATOM     36  H   UNL     1       5.120  -0.629  -0.183  0.00  0.00    +0.149 HD
BRANCH  23  24
ATOM     24  C   UNL     1       7.076   0.965   0.398  0.00  0.00    +0.037 A 
ATOM     27  C   UNL     1       8.091   1.874   0.099  0.00  0.00    +0.013 A 
ATOM     28  C   UNL     1       7.396  -0.308   0.870  0.00  0.00    +0.013 A 
ATOM     29  C   UNL     1       9.426   1.510   0.272  0.00  0.00    +0.001 A 
ATOM     30  C   UNL     1       8.731  -0.672   1.043  0.00  0.00    +0.001 A 
ATOM     33  C   UNL     1       9.746   0.237   0.744  0.00  0.00    +0.000 A 
ENDBRANCH  23  24
ENDBRANCH  15   5
BRANCH  11   1
ATOM      1  O   UNL     1       0.042  -1.529   1.852  0.00  0.00    -0.391 OA
ATOM     37  H   UNL     1      -0.227  -0.647   2.161  0.00  0.00    +0.210 HD
ENDBRANCH  11   1
BRANCH  14  19
ATOM     19  C   UNL     1      -2.383  -2.399   0.439  0.00  0.00    +0.077 C 
ATOM     21  C   UNL     1      -1.935  -3.708  -0.202  0.00  0.00    +0.017 C 
BRANCH  19  22
ATOM      2  O   UNL     1      -4.328  -2.391  -1.004  0.00  0.00    -0.276 OA
ATOM      6  N   UNL     1      -4.479  -1.356   1.066  0.00  0.00    -0.314 N 
ATOM     22  C   UNL     1      -3.824  -2.063   0.068  0.00  0.00    +0.216 C 
ATOM     38  H   UNL     1      -3.979  -1.109   1.915  0.00  0.00    +0.149 HD
BRANCH   6  25
ATOM     25  C   UNL     1      -5.852  -0.924   0.945  0.00  0.00    +0.119 C 
BRANCH  25  26
ATOM     26  C   UNL     1      -5.940   0.461   0.321  0.00  0.00    +0.103 C 
BRANCH  26   7
ATOM      4  O   UNL     1      -9.411   2.818   0.445  0.00  0.00    -0.377 OA
ATOM      7  N   UNL     1      -7.335   0.883   0.216  0.00  0.00    -0.297 NA
ATOM     31  C   UNL     1      -7.852   1.305   1.526  0.00  0.00    +0.112 C 
ATOM     32  C   UNL     1      -7.479   1.975  -0.757  0.00  0.00    +0.112 C 
ATOM     34  C   UNL     1      -9.305   1.752   1.389  0.00  0.00    +0.175 C 
ATOM     35  C   UNL     1      -8.940   2.407  -0.839  0.00  0.00    +0.175 C 
ENDBRANCH  26   7
ENDBRANCH  25  26
ENDBRANCH   6  25
ENDBRANCH  19  22
ENDBRANCH  14  19
TORSDOF 8
