REMARK  Name = 40777818
REMARK  10 active torsions:
REMARK  status: ('A' for Active; 'I' for Inactive)
REMARK    1  A    between atoms: O_3  and  C_9
REMARK    2  A    between atoms: O_4  and  C_10
REMARK    3  A    between atoms: N_7  and  C_14
REMARK    4  A    between atoms: N_8  and  C_16
REMARK    5  A    between atoms: C_11  and  C_13
REMARK    6  A    between atoms: C_12  and  C_14
REMARK    7  A    between atoms: C_13  and  C_15
REMARK    8  A    between atoms: C_16  and  C_18
REMARK    9  A    between atoms: C_16  and  C_19
REMARK   10  A    between atoms: C_17  and  C_20
REMARK                            x       y       z     vdW  Elec       q    Type
REMARK                         _______ _______ _______ _____ _____    ______ ____
ROOT
ATOM      2  O   UNL     1      -2.331  -0.314  -0.981  0.00  0.00    -0.366 OA
ATOM      9  C   UNL     1      -3.647  -0.353   1.001  0.00  0.00    +0.175 C 
ATOM     10  C   UNL     1      -3.320   1.082   0.642  0.00  0.00    +0.176 C 
ATOM     11  C   UNL     1      -2.621  -1.127   0.179  0.00  0.00    +0.158 C 
ATOM     12  C   UNL     1      -2.986   0.959  -0.835  0.00  0.00    +0.167 C 
ENDROOT
BRANCH   9   3
ATOM      3  O   UNL     1      -4.947  -0.699   0.524  0.00  0.00    -0.387 OA
ATOM     26  H   UNL     1      -5.100  -1.633   0.748  0.00  0.00    +0.210 HD
ENDBRANCH   9   3
BRANCH  10   4
ATOM      4  O   UNL     1      -4.390   1.973   0.872  0.00  0.00    -0.387 OA
ATOM     27  H   UNL     1      -4.630   1.905   1.811  0.00  0.00    +0.210 HD
ENDBRANCH  10   4
BRANCH  11  13
ATOM     13  C   UNL     1      -1.313  -1.359   0.924  0.00  0.00    +0.130 C 
BRANCH  13  15
ATOM      5  O   UNL     1      -0.905  -3.371  -0.354  0.00  0.00    -0.276 OA
ATOM      8  N   UNL     1       0.904  -2.156   0.453  0.00  0.00    -0.313 N 
ATOM     15  C   UNL     1      -0.446  -2.415   0.264  0.00  0.00    +0.216 C 
ATOM     29  H   UNL     1       1.183  -1.313   0.947  0.00  0.00    +0.149 HD
BRANCH   8  16
ATOM     16  C   UNL     1       1.951  -3.004  -0.069  0.00  0.00    +0.067 C 
ATOM     18  C   UNL     1       3.160  -2.982   0.857  0.00  0.00    +0.027 C 
ATOM     19  C   UNL     1       2.329  -2.578  -1.482  0.00  0.00    +0.027 C 
ENDBRANCH   8  16
ENDBRANCH  13  15
ENDBRANCH  11  13
BRANCH  12  14
ATOM     14  C   UNL     1      -2.076   2.063  -1.341  0.00  0.00    +0.138 C 
BRANCH  14   7
ATOM      6  O   UNL     1       0.304   0.625  -2.058  0.00  0.00    -0.270 OA
ATOM      7  N   UNL     1      -0.828   2.069  -0.637  0.00  0.00    -0.309 N 
ATOM     17  C   UNL     1       0.280   1.338  -1.058  0.00  0.00    +0.244 C 
ATOM     28  H   UNL     1      -0.761   2.681   0.170  0.00  0.00    +0.149 HD
BRANCH  17  20
ATOM      1  F   UNL     1       5.106   1.146  -0.497  0.00  0.00    -0.205 F 
ATOM     20  C   UNL     1       1.492   1.430  -0.203  0.00  0.00    +0.039 A 
ATOM     21  C   UNL     1       2.756   1.241  -0.762  0.00  0.00    +0.051 A 
ATOM     22  C   UNL     1       1.365   1.706   1.158  0.00  0.00    +0.013 A 
ATOM     23  C   UNL     1       3.893   1.328   0.040  0.00  0.00    +0.124 A 
ATOM     24  C   UNL     1       2.503   1.793   1.961  0.00  0.00    +0.004 A 
ATOM     25  C   UNL     1       3.767   1.604   1.401  0.00  0.00    +0.038 A 
ENDBRANCH  17  20
ENDBRANCH  14   7
ENDBRANCH  12  14
TORSDOF 8
