REMARK  Name = 45784332
REMARK  5 active torsions:
REMARK  status: ('A' for Active; 'I' for Inactive)
REMARK    1  A    between atoms: S_1  and  C_22
REMARK    2  A    between atoms: S_1  and  C_24
REMARK    3  A    between atoms: N_5  and  C_7
REMARK    4  A    between atoms: C_8  and  C_17
REMARK    5  A    between atoms: C_24  and  C_25
REMARK                            x       y       z     vdW  Elec       q    Type
REMARK                         _______ _______ _______ _____ _____    ______ ____
ROOT
ATOM      2  O   UNL     1       0.636   2.054   0.519  0.00  0.00    -0.439 OA
ATOM      6  N   UNL     1       0.447   0.008  -0.437  0.00  0.00    -0.213 NA
ATOM     17  C   UNL     1      -0.154   1.122  -0.084  0.00  0.00    +0.201 A 
ATOM     18  C   UNL     1       1.746   0.209  -0.038  0.00  0.00    +0.111 A 
ATOM     19  C   UNL     1       1.866   1.461   0.548  0.00  0.00    +0.155 A 
ATOM     20  C   UNL     1       2.883  -0.607  -0.131  0.00  0.00    +0.058 A 
ATOM     21  C   UNL     1       3.046   1.985   1.062  0.00  0.00    +0.050 A 
ATOM     22  C   UNL     1       4.093  -0.112   0.377  0.00  0.00    +0.090 A 
ATOM     23  C   UNL     1       4.170   1.158   0.962  0.00  0.00    +0.030 A 
ENDROOT
BRANCH  17   8
ATOM      5  N   UNL     1      -3.770   0.608  -0.375  0.00  0.00    -0.299 NA
ATOM      8  C   UNL     1      -1.606   1.503  -0.260  0.00  0.00    +0.090 C 
ATOM      9  C   UNL     1      -2.567   0.546   0.458  0.00  0.00    +0.097 C 
ATOM     10  C   UNL     1      -3.279   0.567  -1.752  0.00  0.00    +0.085 C 
ATOM     13  C   UNL     1      -2.096   1.526  -1.718  0.00  0.00    +0.029 C 
BRANCH   5   7
ATOM      7  C   UNL     1      -4.705  -0.478  -0.085  0.00  0.00    +0.057 C 
ATOM     11  C   UNL     1      -5.886  -0.422  -1.060  0.00  0.00    +0.019 C 
ATOM     12  C   UNL     1      -5.183  -0.380   1.368  0.00  0.00    +0.019 C 
ATOM     14  C   UNL     1      -6.924  -1.497  -0.739  0.00  0.00    +0.002 C 
ATOM     15  C   UNL     1      -6.221  -1.454   1.686  0.00  0.00    +0.002 C 
ATOM     16  C   UNL     1      -7.394  -1.410   0.710  0.00  0.00    +0.000 C 
ENDBRANCH   5   7
ENDBRANCH  17   8
BRANCH  22   1
ATOM      1  S   UNL     1       5.531  -1.103   0.281  0.00  0.00    -0.003 S 
ATOM      3  O   UNL     1       6.462  -0.681   1.317  0.00  0.00    -0.169 OA
ATOM      4  O   UNL     1       5.109  -2.494   0.207  0.00  0.00    -0.169 OA
BRANCH   1  24
ATOM     24  C   UNL     1       6.260  -0.667  -1.281  0.00  0.00    +0.168 C 
ATOM     25  C   UNL     1       7.535  -1.441  -1.534  0.00  0.00    +0.028 C 
ENDBRANCH   1  24
ENDBRANCH  22   1
TORSDOF 4
