REMARK  Name = 11911997
REMARK  5 active torsions:
REMARK  status: ('A' for Active; 'I' for Inactive)
REMARK    1  A    between atoms: O_3  and  C_10
REMARK    2  A    between atoms: O_3  and  C_13
REMARK    3  A    between atoms: N_4  and  C_9
REMARK    4  A    between atoms: C_13  and  C_15
REMARK    5  A    between atoms: C_16  and  C_21
REMARK                            x       y       z     vdW  Elec       q    Type
REMARK                         _______ _______ _______ _____ _____    ______ ____
ROOT
ATOM      1  O   UNL     1       1.893  -0.794   1.074  0.00  0.00    -0.369 OA
ATOM      2  O   UNL     1       0.167   1.698   0.608  0.00  0.00    -0.369 OA
ATOM      7  C   UNL     1       0.072   0.357   0.083  0.00  0.00    +0.172 C 
ATOM      8  C   UNL     1       1.490  -0.131  -0.136  0.00  0.00    +0.180 C 
ATOM      9  C   UNL     1      -0.474  -0.576   1.139  0.00  0.00    +0.130 C 
ATOM     10  C   UNL     1       2.249   1.157  -0.348  0.00  0.00    +0.175 C 
ATOM     11  C   UNL     1       0.765  -0.895   1.958  0.00  0.00    +0.185 C 
ATOM     12  C   UNL     1       1.544   2.102   0.599  0.00  0.00    +0.194 C 
ENDROOT
BRANCH   9   4
ATOM      4  N   UNL     1      -1.033  -1.767   0.546  0.00  0.00    -0.306 N 
ATOM      5  N   UNL     1      -3.106  -0.737   0.164  0.00  0.00    -0.214 NA
ATOM      6  N   UNL     1      -2.728  -3.031  -0.471  0.00  0.00    -0.223 NA
ATOM     14  C   UNL     1      -2.328  -1.847   0.065  0.00  0.00    +0.216 A 
ATOM     16  C   UNL     1      -4.363  -0.851  -0.314  0.00  0.00    +0.076 A 
ATOM     19  C   UNL     1      -3.996  -3.074  -0.930  0.00  0.00    +0.116 A 
ATOM     20  C   UNL     1      -4.867  -2.005  -0.877  0.00  0.00    +0.048 A 
ATOM     30  H   UNL     1      -0.445  -2.583   0.421  0.00  0.00    +0.149 HD
BRANCH  16  21
ATOM     21  C   UNL     1      -5.172   0.339  -0.200  0.00  0.00    +0.001 A 
ATOM     25  C   UNL     1      -6.557   0.233  -0.051  0.00  0.00    +0.010 A 
ATOM     26  C   UNL     1      -4.573   1.600  -0.239  0.00  0.00    +0.010 A 
ATOM     27  C   UNL     1      -7.339   1.383   0.060  0.00  0.00    +0.001 A 
ATOM     28  C   UNL     1      -5.356   2.750  -0.128  0.00  0.00    +0.001 A 
ATOM     29  C   UNL     1      -6.738   2.641   0.021  0.00  0.00    +0.000 A 
ENDBRANCH  16  21
ENDBRANCH   9   4
BRANCH  10   3
ATOM      3  O   UNL     1       3.626   1.052  -0.064  0.00  0.00    -0.367 OA
BRANCH   3  13
ATOM     13  C   UNL     1       4.288   0.160  -0.958  0.00  0.00    +0.195 C 
BRANCH  13  15
ATOM     15  C   UNL     1       5.743   0.097  -0.599  0.00  0.00    -0.022 A 
ATOM     17  C   UNL     1       6.636   0.988  -1.185  0.00  0.00    +0.006 A 
ATOM     18  C   UNL     1       6.186  -0.851   0.317  0.00  0.00    +0.006 A 
ATOM     22  C   UNL     1       7.989   0.930  -0.851  0.00  0.00    +0.000 A 
ATOM     23  C   UNL     1       7.540  -0.908   0.650  0.00  0.00    +0.000 A 
ATOM     24  C   UNL     1       8.441  -0.018   0.067  0.00  0.00    +0.000 A 
ENDBRANCH  13  15
ENDBRANCH   3  13
ENDBRANCH  10   3
TORSDOF 5
