REMARK  Name = 45783792
REMARK  5 active torsions:
REMARK  status: ('A' for Active; 'I' for Inactive)
REMARK    1  A    between atoms: N_2  and  C_7
REMARK    2  A    between atoms: N_6  and  C_21
REMARK    3  A    between atoms: N_6  and  C_22
REMARK    4  A    between atoms: C_10  and  C_15
REMARK    5  A    between atoms: C_16  and  C_17
REMARK                            x       y       z     vdW  Elec       q    Type
REMARK                         _______ _______ _______ _____ _____    ______ ____
ROOT
ATOM      1  O   UNL     1       0.940   0.329   2.079  0.00  0.00    -0.336 OA
ATOM      3  N   UNL     1       0.284   0.685  -0.033  0.00  0.00    -0.190 NA
ATOM      4  N   UNL     1      -0.437   0.078   2.051  0.00  0.00    -0.056 NA
ATOM     15  C   UNL     1       1.284   0.681   0.812  0.00  0.00    +0.245 A 
ATOM     16  C   UNL     1      -0.750   0.308   0.773  0.00  0.00    +0.204 A 
ENDROOT
BRANCH  16  17
ATOM      5  N   UNL     1      -4.408  -0.355   0.688  0.00  0.00    -0.240 NA
ATOM     17  C   UNL     1      -2.087   0.174   0.269  0.00  0.00    +0.041 A 
ATOM     18  C   UNL     1      -2.377   0.423  -1.067  0.00  0.00    +0.016 A 
ATOM     19  C   UNL     1      -3.128  -0.210   1.099  0.00  0.00    +0.124 A 
ATOM     20  C   UNL     1      -3.682   0.284  -1.527  0.00  0.00    +0.044 A 
ATOM     21  C   UNL     1      -4.652  -0.104  -0.617  0.00  0.00    +0.118 A 
BRANCH  21   6
ATOM      6  N   UNL     1      -5.977  -0.240  -1.101  0.00  0.00    -0.332 N 
ATOM     22  C   UNL     1      -7.065  -0.633  -0.265  0.00  0.00    +0.127 C 
ATOM     23  H   UNL     1      -6.101  -0.274  -2.107  0.00  0.00    +0.147 HD
ENDBRANCH  21   6
ENDBRANCH  16  17
BRANCH  15  10
ATOM      2  N   UNL     1       3.344   0.158  -0.476  0.00  0.00    -0.288 NA
ATOM     10  C   UNL     1       2.744   1.007   0.575  0.00  0.00    +0.146 C 
ATOM     12  C   UNL     1       4.388   0.962  -1.113  0.00  0.00    +0.085 C 
ATOM     13  C   UNL     1       2.962   2.451   0.086  0.00  0.00    +0.030 C 
ATOM     14  C   UNL     1       3.716   2.315  -1.229  0.00  0.00    +0.017 C 
BRANCH   2   7
ATOM      7  C   UNL     1       3.916  -1.073   0.088  0.00  0.00    +0.057 C 
ATOM      8  C   UNL     1       2.797  -2.115   0.295  0.00  0.00    +0.019 C 
ATOM      9  C   UNL     1       4.437  -1.971  -1.053  0.00  0.00    +0.019 C 
ATOM     11  C   UNL     1       3.753  -3.152  -0.333  0.00  0.00    +0.003 C 
ENDBRANCH   2   7
ENDBRANCH  15  10
TORSDOF 4
