REMARK  Name = 11943210
REMARK  9 active torsions:
REMARK  status: ('A' for Active; 'I' for Inactive)
REMARK    1  A    between atoms: O_1  and  C_14
REMARK    2  A    between atoms: O_1  and  C_17
REMARK    3  A    between atoms: O_3  and  C_21
REMARK    4  A    between atoms: O_3  and  C_24
REMARK    5  A    between atoms: O_4  and  C_22
REMARK    6  A    between atoms: O_4  and  C_25
REMARK    7  A    between atoms: N_6  and  C_18
REMARK    8  A    between atoms: C_8  and  C_14
REMARK    9  A    between atoms: C_10  and  C_15
REMARK                            x       y       z     vdW  Elec       q    Type
REMARK                         _______ _______ _______ _____ _____    ______ ____
ROOT
ATOM      2  O   UNL     1       0.438   1.430  -0.906  0.00  0.00    -0.226 OA
ATOM      6  N   UNL     1       1.287  -0.652  -0.255  0.00  0.00    -0.251 N 
ATOM     17  C   UNL     1       0.304   0.245  -0.627  0.00  0.00    +0.405 C 
ATOM     26  H   UNL     1       0.978  -1.601  -0.061  0.00  0.00    +0.158 HD
ENDROOT
BRANCH   6  18
ATOM     18  C   UNL     1       2.672  -0.413  -0.108  0.00  0.00    +0.043 A 
ATOM     19  C   UNL     1       3.503  -1.453   0.278  0.00  0.00    +0.069 A 
ATOM     20  C   UNL     1       3.173   0.855  -0.354  0.00  0.00    +0.069 A 
ATOM     21  C   UNL     1       4.540   1.091  -0.209  0.00  0.00    +0.125 A 
ATOM     22  C   UNL     1       4.870  -1.218   0.423  0.00  0.00    +0.125 A 
ATOM     23  C   UNL     1       5.389   0.054   0.179  0.00  0.00    +0.091 A 
BRANCH  21   3
ATOM      3  O   UNL     1       5.047   2.332  -0.446  0.00  0.00    -0.495 OA
ATOM     24  C   UNL     1       6.454   2.501  -0.280  0.00  0.00    +0.277 C 
ENDBRANCH  21   3
BRANCH  22   4
ATOM      4  O   UNL     1       5.699  -2.229   0.801  0.00  0.00    -0.495 OA
ATOM     25  C   UNL     1       7.086  -1.919   0.930  0.00  0.00    +0.277 C 
ENDBRANCH  22   4
ENDBRANCH   6  18
BRANCH  17   1
ATOM      1  O   UNL     1      -0.915  -0.396  -0.648  0.00  0.00    -0.449 OA
BRANCH   1  14
ATOM     14  C   UNL     1      -2.037   0.385  -1.011  0.00  0.00    +0.252 C 
BRANCH  14   8
ATOM      5  N   UNL     1      -4.497   0.195  -1.457  0.00  0.00    -0.295 NA
ATOM      7  C   UNL     1      -5.013  -1.041   0.775  0.00  0.00    +0.008 C 
ATOM      8  C   UNL     1      -3.279  -0.508  -0.972  0.00  0.00    +0.095 C 
ATOM      9  C   UNL     1      -3.510  -1.109   0.433  0.00  0.00    +0.027 C 
ATOM     10  C   UNL     1      -5.447   0.439   0.850  0.00  0.00    +0.081 C 
ATOM     11  C   UNL     1      -5.780  -1.673  -0.402  0.00  0.00    +0.020 C 
ATOM     12  C   UNL     1      -4.977   1.157  -0.434  0.00  0.00    +0.101 C 
ATOM     13  C   UNL     1      -5.557  -0.823  -1.666  0.00  0.00    +0.085 C 
BRANCH  10  15
ATOM     15  C   UNL     1      -4.934   1.104   2.059  0.00  0.00    -0.101 C 
ATOM     16  C   UNL     1      -4.516   1.646   3.045  0.00  0.00    +0.004 C 
ENDBRANCH  10  15
ENDBRANCH  14   8
ENDBRANCH   1  14
ENDBRANCH  17   1
TORSDOF 7
