REMARK  Name = 75537062
REMARK  4 active torsions:
REMARK  status: ('A' for Active; 'I' for Inactive)
REMARK    1  A    between atoms: N_3  and  C_13
REMARK    2  A    between atoms: N_4  and  C_14
REMARK    3  A    between atoms: N_5  and  C_23
REMARK    4  A    between atoms: C_13  and  C_15
REMARK                            x       y       z     vdW  Elec       q    Type
REMARK                         _______ _______ _______ _____ _____    ______ ____
ROOT
ATOM      1  O   UNL     1      -2.855  -2.394  -0.155  0.00  0.00    -0.252 OA
ATOM      2  N   UNL     1      -0.698  -1.520  -0.277  0.00  0.00    -0.278 N 
ATOM      3  N   UNL     1       2.067  -1.276   0.184  0.00  0.00    -0.295 NA
ATOM      4  N   UNL     1      -2.408  -0.042  -0.138  0.00  0.00    -0.254 N 
ATOM      7  C   UNL     1      -0.071  -0.232  -0.440  0.00  0.00    +0.109 C 
ATOM      8  C   UNL     1       1.176  -0.125   0.436  0.00  0.00    +0.109 C 
ATOM      9  C   UNL     1      -1.184   0.751  -0.095  0.00  0.00    +0.139 C 
ATOM     10  C   UNL     1       0.116  -2.716  -0.355  0.00  0.00    +0.125 C 
ATOM     11  C   UNL     1       1.382  -2.547   0.488  0.00  0.00    +0.104 C 
ATOM     12  C   UNL     1      -2.097  -1.434  -0.192  0.00  0.00    +0.309 C 
ENDROOT
BRANCH   4  14
ATOM     14  C   UNL     1      -3.703   0.545  -0.050  0.00  0.00    +0.038 A 
ATOM     16  C   UNL     1      -4.836  -0.267  -0.007  0.00  0.00    +0.023 A 
ATOM     17  C   UNL     1      -3.838   1.933  -0.006  0.00  0.00    +0.023 A 
ATOM     20  C   UNL     1      -6.104   0.308   0.079  0.00  0.00    +0.002 A 
ATOM     21  C   UNL     1      -5.106   2.508   0.080  0.00  0.00    +0.002 A 
ATOM     22  C   UNL     1      -6.239   1.696   0.122  0.00  0.00    +0.000 A 
ENDBRANCH   4  14
BRANCH   3  13
ATOM     13  C   UNL     1       3.292  -1.154   0.974  0.00  0.00    +0.122 C 
BRANCH  13  15
ATOM      5  N   UNL     1       5.437   1.624  -0.056  0.00  0.00    -0.274 N 
ATOM      6  N   UNL     1       5.812   0.760  -1.015  0.00  0.00    -0.180 NA
ATOM     15  C   UNL     1       4.249  -0.157   0.376  0.00  0.00    +0.004 A 
ATOM     18  C   UNL     1       4.503   1.123   0.803  0.00  0.00    +0.112 A 
ATOM     19  C   UNL     1       5.082  -0.326  -0.746  0.00  0.00    +0.139 A 
ATOM     23  C   UNL     1       6.021   2.943  -0.011  0.00  0.00    +0.172 C 
ENDBRANCH  13  15
ENDBRANCH   3  13
TORSDOF 3
