REMARK  Name = 51136649
REMARK  8 active torsions:
REMARK  status: ('A' for Active; 'I' for Inactive)
REMARK    1  A    between atoms: O_2  and  C_17
REMARK    2  A    between atoms: O_4  and  C_25
REMARK    3  A    between atoms: O_4  and  C_31
REMARK    4  A    between atoms: C_7  and  C_12
REMARK    5  A    between atoms: C_8  and  C_13
REMARK    6  A    between atoms: C_12  and  C_14
REMARK    7  A    between atoms: C_13  and  C_17
REMARK    8  A    between atoms: C_15  and  C_21
REMARK                            x       y       z     vdW  Elec       q    Type
REMARK                         _______ _______ _______ _____ _____    ______ ____
ROOT
ATOM      1  O   UNL     1       0.829   3.463   1.749  0.00  0.00    -0.270 OA
ATOM      5  N   UNL     1       1.807   2.031   0.179  0.00  0.00    -0.297 N 
ATOM      7  C   UNL     1       2.168  -0.262  -0.708  0.00  0.00    +0.016 C 
ATOM      8  C   UNL     1       3.581  -0.244  -0.070  0.00  0.00    +0.006 C 
ATOM      9  C   UNL     1       3.642   0.700   1.143  0.00  0.00    +0.023 C 
ATOM     10  C   UNL     1       1.712   1.177  -1.013  0.00  0.00    +0.112 C 
ATOM     11  C   UNL     1       3.136   2.095   0.784  0.00  0.00    +0.108 C 
ATOM     15  C   UNL     1       0.755   2.751   0.749  0.00  0.00    +0.247 C 
ENDROOT
BRANCH  15  21
ATOM     21  C   UNL     1      -0.565   2.663   0.114  0.00  0.00    +0.037 A 
ATOM     26  C   UNL     1      -0.731   3.071  -1.210  0.00  0.00    +0.013 A 
ATOM     27  C   UNL     1      -1.653   2.170   0.833  0.00  0.00    +0.013 A 
ATOM     28  C   UNL     1      -1.985   2.986  -1.814  0.00  0.00    +0.001 A 
ATOM     29  C   UNL     1      -2.908   2.085   0.229  0.00  0.00    +0.001 A 
ATOM     30  C   UNL     1      -3.074   2.493  -1.095  0.00  0.00    +0.000 A 
ENDBRANCH  15  21
BRANCH   7  12
ATOM     12  C   UNL     1       1.114  -0.987   0.137  0.00  0.00    +0.061 C 
BRANCH  12  14
ATOM      6  N   UNL     1       0.194  -1.650  -1.980  0.00  0.00    -0.287 NA
ATOM     14  C   UNL     1      -0.047  -1.400  -0.736  0.00  0.00    +0.044 C 
ATOM     16  C   UNL     1      -1.400  -1.492  -0.130  0.00  0.00    -0.001 A 
ATOM     18  C   UNL     1      -2.488  -1.491  -1.012  0.00  0.00    -0.033 A 
ATOM     19  C   UNL     1      -2.221  -1.385  -2.485  0.00  0.00    +0.059 C 
ATOM     20  C   UNL     1      -0.922  -2.109  -2.814  0.00  0.00    +0.146 C 
ATOM     22  C   UNL     1      -1.607  -1.562   1.249  0.00  0.00    +0.013 A 
ATOM     23  C   UNL     1      -3.789  -1.535  -0.504  0.00  0.00    +0.050 A 
ATOM     24  C   UNL     1      -2.910  -1.620   1.747  0.00  0.00    +0.046 A 
ATOM     25  C   UNL     1      -3.998  -1.604   0.874  0.00  0.00    +0.120 A 
BRANCH  25   4
ATOM      4  O   UNL     1      -5.265  -1.654   1.367  0.00  0.00    -0.495 OA
ATOM     31  C   UNL     1      -5.407  -1.722   2.785  0.00  0.00    +0.277 C 
ENDBRANCH  25   4
ENDBRANCH  12  14
ENDBRANCH   7  12
BRANCH   8  13
ATOM     13  C   UNL     1       4.090  -1.636   0.304  0.00  0.00    +0.124 C 
BRANCH  13  17
ATOM      3  O   UNL     1       6.354  -0.736   0.210  0.00  0.00    -0.251 OA
ATOM     17  C   UNL     1       5.590  -1.672   0.396  0.00  0.00    +0.305 C 
BRANCH  17   2
ATOM      2  O   UNL     1       5.998  -2.925   0.724  0.00  0.00    -0.481 OA
ATOM     32  H   UNL     1       6.975  -2.985   0.793  0.00  0.00    +0.295 HD
ENDBRANCH  17   2
ENDBRANCH  13  17
ENDBRANCH   8  13
TORSDOF 7
