REMARK  Name = 38029418
REMARK  14 active torsions:
REMARK  status: ('A' for Active; 'I' for Inactive)
REMARK    1  A    between atoms: O_3  and  C_22
REMARK    2  A    between atoms: O_3  and  C_26
REMARK    3  A    between atoms: N_4  and  C_14
REMARK    4  A    between atoms: N_5  and  C_21
REMARK    5  A    between atoms: C_7  and  C_11
REMARK    6  A    between atoms: C_8  and  C_14
REMARK    7  A    between atoms: C_10  and  C_15
REMARK    8  A    between atoms: C_11  and  C_16
REMARK    9  A    between atoms: C_11  and  C_17
REMARK   10  A    between atoms: C_12  and  C_18
REMARK   11  A    between atoms: C_15  and  C_19
REMARK   12  A    between atoms: C_20  and  C_22
REMARK   13  A    between atoms: C_21  and  C_23
REMARK   14  A    between atoms: C_29  and  C_30
REMARK                            x       y       z     vdW  Elec       q    Type
REMARK                         _______ _______ _______ _____ _____    ______ ____
ROOT
ATOM      7  C   UNL     1      -1.466  -0.595  -1.393  0.00  0.00    +0.000 C 
ATOM      8  C   UNL     1      -2.973  -0.436  -1.715  0.00  0.00    +0.032 C 
ATOM      9  C   UNL     1      -1.159  -2.037  -0.962  0.00  0.00    +0.012 C 
ATOM     10  C   UNL     1      -1.970  -2.459   0.278  0.00  0.00    +0.023 C 
ATOM     12  C   UNL     1      -3.434  -2.089   0.146  0.00  0.00    -0.073 C 
ATOM     13  C   UNL     1      -3.865  -1.192  -0.759  0.00  0.00    -0.022 C 
ATOM     18  C   UNL     1      -4.398  -2.807   1.049  0.00  0.00    +0.039 C 
ENDROOT
BRANCH   7  11
ATOM     11  C   UNL     1      -0.586  -0.213  -2.587  0.00  0.00    -0.013 C 
ATOM     16  C   UNL     1       0.803   0.203  -2.114  0.00  0.00    +0.007 C 
ATOM     17  C   UNL     1      -0.496  -1.372  -3.575  0.00  0.00    +0.007 C 
ENDBRANCH   7  11
BRANCH   8  14
ATOM     14  C   UNL     1      -3.382   1.042  -1.734  0.00  0.00    +0.112 C 
BRANCH  14   4
ATOM      2  O   UNL     1      -1.714   3.275  -0.960  0.00  0.00    -0.273 OA
ATOM      4  N   UNL     1      -3.261   1.618  -0.431  0.00  0.00    -0.313 N 
ATOM     20  C   UNL     1      -2.429   2.699  -0.144  0.00  0.00    +0.239 C 
ATOM     31  H   UNL     1      -3.853   1.255   0.310  0.00  0.00    +0.149 HD
BRANCH  20  22
ATOM     22  C   UNL     1      -2.498   3.104   1.313  0.00  0.00    +0.255 C 
BRANCH  22   3
ATOM      3  O   UNL     1      -1.655   4.208   1.565  0.00  0.00    -0.374 OA
ATOM     26  C   UNL     1      -1.700   4.611   2.930  0.00  0.00    +0.194 C 
ENDBRANCH  22   3
ENDBRANCH  20  22
ENDBRANCH  14   4
ENDBRANCH   8  14
BRANCH  10  15
ATOM     15  C   UNL     1      -1.369  -1.870   1.559  0.00  0.00    +0.103 C 
BRANCH  15  19
ATOM      1  O   UNL     1       0.606  -3.239   1.274  0.00  0.00    -0.276 OA
ATOM      5  N   UNL     1       0.774  -1.205   2.386  0.00  0.00    -0.311 N 
ATOM     19  C   UNL     1       0.098  -2.207   1.705  0.00  0.00    +0.214 C 
ATOM     32  H   UNL     1       0.266  -0.385   2.703  0.00  0.00    +0.149 HD
BRANCH   5  21
ATOM     21  C   UNL     1       2.189  -1.262   2.672  0.00  0.00    +0.139 C 
BRANCH  21  23
ATOM     23  C   UNL     1       3.009  -0.645   1.576  0.00  0.00    -0.030 A 
ATOM     24  C   UNL     1       3.961  -1.410   0.903  0.00  0.00    +0.006 A 
ATOM     25  C   UNL     1       2.819   0.693   1.232  0.00  0.00    +0.006 A 
ATOM     27  C   UNL     1       4.723  -0.837  -0.116  0.00  0.00    +0.019 A 
ATOM     28  C   UNL     1       3.581   1.266   0.214  0.00  0.00    +0.019 A 
ATOM     29  C   UNL     1       4.533   0.501  -0.460  0.00  0.00    +0.052 A 
BRANCH  29  30
ATOM      6  N   UNL     1       5.947   1.565  -2.350  0.00  0.00    -0.191 NA
ATOM     30  C   UNL     1       5.313   1.088  -1.503  0.00  0.00    +0.099 C 
ENDBRANCH  29  30
ENDBRANCH  21  23
ENDBRANCH   5  21
ENDBRANCH  15  19
ENDBRANCH  10  15
TORSDOF 10
