REMARK  Name = 75536562
REMARK  9 active torsions:
REMARK  status: ('A' for Active; 'I' for Inactive)
REMARK    1  A    between atoms: O_2  and  C_10
REMARK    2  A    between atoms: N_5  and  C_17
REMARK    3  A    between atoms: N_6  and  C_11
REMARK    4  A    between atoms: N_6  and  C_19
REMARK    5  A    between atoms: N_7  and  C_25
REMARK    6  A    between atoms: C_8  and  C_18
REMARK    7  A    between atoms: C_9  and  C_17
REMARK    8  A    between atoms: C_19  and  C_20
REMARK    9  A    between atoms: C_26  and  C_27
REMARK                            x       y       z     vdW  Elec       q    Type
REMARK                         _______ _______ _______ _____ _____    ______ ____
ROOT
ATOM      1  O   UNL     1       2.032  -0.799  -0.914  0.00  0.00    -0.371 OA
ATOM      9  C   UNL     1       2.384   0.112   0.140  0.00  0.00    +0.165 C 
ATOM     10  C   UNL     1       1.077   0.490   0.823  0.00  0.00    +0.164 C 
ATOM     11  C   UNL     1       0.122   0.498  -0.357  0.00  0.00    +0.111 C 
ATOM     16  C   UNL     1       0.617  -0.699  -1.152  0.00  0.00    +0.181 C 
ENDROOT
BRANCH  10   2
ATOM      2  O   UNL     1       1.162   1.748   1.464  0.00  0.00    -0.388 OA
ATOM     30  H   UNL     1       1.420   2.412   0.803  0.00  0.00    +0.210 HD
ENDBRANCH  10   2
BRANCH  11   6
ATOM      6  N   UNL     1      -1.276   0.386   0.023  0.00  0.00    -0.305 NA
ATOM     29  H   UNL     1      -1.462   1.021   0.800  0.00  0.00    +0.123 HD
BRANCH   6  19
ATOM     19  C   UNL     1      -2.153   0.733  -1.089  0.00  0.00    +0.116 C 
BRANCH  19  20
ATOM     20  C   UNL     1      -3.606   0.607  -0.719  0.00  0.00    -0.033 A 
ATOM     21  C   UNL     1      -4.198  -0.654  -0.639  0.00  0.00    +0.007 A 
ATOM     22  C   UNL     1      -4.361   1.750  -0.455  0.00  0.00    +0.007 A 
ATOM     23  C   UNL     1      -5.545  -0.771  -0.296  0.00  0.00    +0.023 A 
ATOM     24  C   UNL     1      -5.708   1.632  -0.112  0.00  0.00    +0.023 A 
ATOM     25  C   UNL     1      -6.300   0.371  -0.033  0.00  0.00    +0.033 A 
BRANCH  25   7
ATOM      4  O   UNL     1      -8.033  -2.071   0.276  0.00  0.00    -0.276 OA
ATOM      7  N   UNL     1      -7.648   0.254   0.310  0.00  0.00    -0.286 N 
ATOM     26  C   UNL     1      -8.409  -0.915   0.438  0.00  0.00    +0.214 C 
ATOM     27  C   UNL     1      -9.835  -0.614   0.826  0.00  0.00    +0.109 C 
ATOM     31  H   UNL     1      -8.129   1.134   0.486  0.00  0.00    +0.155 HD
ENDBRANCH  25   7
ENDBRANCH  19  20
ENDBRANCH   6  19
ENDBRANCH  11   6
BRANCH   9  17
ATOM     17  C   UNL     1       3.382  -0.546   1.076  0.00  0.00    +0.138 C 
BRANCH  17   5
ATOM      3  O   UNL     1       5.750   1.102   0.752  0.00  0.00    -0.276 OA
ATOM      5  N   UNL     1       4.594  -0.888   0.390  0.00  0.00    -0.313 N 
ATOM     18  C   UNL     1       5.684  -0.032   0.283  0.00  0.00    +0.216 C 
ATOM     28  H   UNL     1       4.647  -1.809  -0.035  0.00  0.00    +0.149 HD
BRANCH  18   8
ATOM      8  C   UNL     1       6.829  -0.646  -0.463  0.00  0.00    +0.075 C 
ATOM     12  C   UNL     1       7.769  -1.370   0.508  0.00  0.00    +0.013 C 
ATOM     13  C   UNL     1       7.669   0.434  -1.147  0.00  0.00    +0.013 C 
ATOM     14  C   UNL     1       9.148  -0.758   0.286  0.00  0.00    +0.001 C 
ATOM     15  C   UNL     1       8.855   0.644  -0.218  0.00  0.00    +0.001 C 
ENDBRANCH  18   8
ENDBRANCH  17   5
ENDBRANCH   9  17
TORSDOF 8
