REMARK  Name = 7672351
REMARK  2 active torsions:
REMARK  status: ('A' for Active; 'I' for Inactive)
REMARK    1  A    between atoms: C_15  and  C_18
REMARK    2  A    between atoms: C_16  and  C_19
REMARK                            x       y       z     vdW  Elec       q    Type
REMARK                         _______ _______ _______ _____ _____    ______ ____
ROOT
ATOM      2  O   UNL     1      -0.934  -1.917   1.442  0.00  0.00    -0.267 OA
ATOM      3  O   UNL     1       3.230   0.791   2.484  0.00  0.00    -0.270 OA
ATOM      4  N   UNL     1       3.709  -0.428   0.546  0.00  0.00    -0.297 N 
ATOM      5  N   UNL     1       0.934  -1.851   0.045  0.00  0.00    -0.311 N 
ATOM      6  C   UNL     1       3.193  -2.854   0.720  0.00  0.00    +0.027 C 
ATOM      7  C   UNL     1       2.958  -1.706  -1.445  0.00  0.00    +0.054 C 
ATOM      8  C   UNL     1       3.415  -3.004  -0.781  0.00  0.00    +0.018 C 
ATOM      9  C   UNL     1       4.006  -1.666   1.267  0.00  0.00    +0.113 C 
ATOM     10  C   UNL     1       1.690  -2.695   0.982  0.00  0.00    +0.130 C 
ATOM     11  C   UNL     1       3.807  -0.529  -0.919  0.00  0.00    +0.117 C 
ATOM     12  C   UNL     1       1.492  -1.437  -1.167  0.00  0.00    +0.027 A 
ATOM     13  C   UNL     1       0.747  -0.765  -2.060  0.00  0.00    +0.022 A 
ATOM     14  C   UNL     1      -0.403  -1.564   0.388  0.00  0.00    +0.260 A 
ATOM     15  C   UNL     1       3.312   0.705   1.260  0.00  0.00    +0.247 C 
ATOM     16  C   UNL     1      -1.198  -0.781  -0.620  0.00  0.00    +0.053 A 
ATOM     17  C   UNL     1      -0.620  -0.432  -1.779  0.00  0.00    +0.016 A 
ENDROOT
BRANCH  16  19
ATOM      1  S   UNL     1      -2.900   1.068   0.410  0.00  0.00    -0.088 S 
ATOM     19  C   UNL     1      -2.554  -0.419  -0.357  0.00  0.00    +0.026 A 
ATOM     20  C   UNL     1      -3.706  -1.123  -0.640  0.00  0.00    +0.024 A 
ATOM     23  C   UNL     1      -4.900  -0.442  -0.227  0.00  0.00    -0.010 A 
ATOM     24  C   UNL     1      -4.600   0.786   0.372  0.00  0.00    +0.020 A 
ATOM     28  C   UNL     1      -6.260  -0.820  -0.335  0.00  0.00    +0.009 A 
ATOM     29  C   UNL     1      -5.614   1.635   0.858  0.00  0.00    +0.015 A 
ATOM     30  C   UNL     1      -7.268   0.020   0.147  0.00  0.00    +0.001 A 
ATOM     31  C   UNL     1      -6.946   1.234   0.737  0.00  0.00    +0.001 A 
ENDBRANCH  16  19
BRANCH  15  18
ATOM     18  C   UNL     1       2.930   1.900   0.500  0.00  0.00    +0.037 A 
ATOM     21  C   UNL     1       1.605   2.080   0.112  0.00  0.00    +0.013 A 
ATOM     22  C   UNL     1       3.895   2.848   0.169  0.00  0.00    +0.013 A 
ATOM     25  C   UNL     1       1.242   3.217  -0.611  0.00  0.00    +0.001 A 
ATOM     26  C   UNL     1       3.532   3.984  -0.554  0.00  0.00    +0.001 A 
ATOM     27  C   UNL     1       2.205   4.168  -0.944  0.00  0.00    +0.000 A 
ENDBRANCH  15  18
TORSDOF 2
