REMARK  Name = 45361616
REMARK  10 active torsions:
REMARK  status: ('A' for Active; 'I' for Inactive)
REMARK    1  A    between atoms: O_1  and  C_11
REMARK    2  A    between atoms: N_4  and  C_15
REMARK    3  A    between atoms: N_5  and  C_25
REMARK    4  A    between atoms: C_8  and  C_18
REMARK    5  A    between atoms: C_10  and  C_20
REMARK    6  A    between atoms: C_14  and  C_19
REMARK    7  A    between atoms: C_19  and  C_21
REMARK    8  A    between atoms: C_19  and  C_22
REMARK    9  A    between atoms: C_23  and  C_24
REMARK   10  A    between atoms: C_25  and  C_27
REMARK                            x       y       z     vdW  Elec       q    Type
REMARK                         _______ _______ _______ _____ _____    ______ ____
ROOT
ATOM      8  C   UNL     1      -0.024   0.432   1.189  0.00  0.00    -0.027 C 
ATOM      9  C   UNL     1      -0.363  -0.449  -0.059  0.00  0.00    +0.028 C 
ATOM     10  C   UNL     1      -1.891  -0.814  -0.087  0.00  0.00    +0.012 C 
ATOM     11  C   UNL     1       0.615  -1.653  -0.182  0.00  0.00    +0.122 C 
ATOM     12  C   UNL     1       1.459   0.867   1.126  0.00  0.00    +0.007 C 
ATOM     13  C   UNL     1      -0.892   1.711   1.154  0.00  0.00    +0.009 C 
ATOM     14  C   UNL     1       2.099  -1.220  -0.140  0.00  0.00    +0.029 C 
ATOM     15  C   UNL     1      -2.754   0.478  -0.046  0.00  0.00    +0.076 C 
ATOM     16  C   UNL     1       2.421  -0.311   1.045  0.00  0.00    +0.007 C 
ATOM     17  C   UNL     1      -2.385   1.419   1.100  0.00  0.00    +0.023 C 
ATOM     18  C   UNL     1      -0.268  -0.314   2.526  0.00  0.00    +0.011 C 
ATOM     20  C   UNL     1      -2.300  -1.657  -1.307  0.00  0.00    +0.010 C 
ENDROOT
BRANCH  15   4
ATOM      3  O   UNL     1      -4.913   2.017  -1.148  0.00  0.00    -0.269 OA
ATOM      4  N   UNL     1      -4.167   0.175   0.046  0.00  0.00    -0.307 N 
ATOM     23  C   UNL     1      -5.136   0.985  -0.521  0.00  0.00    +0.263 C 
ATOM     35  H   UNL     1      -4.453  -0.629   0.597  0.00  0.00    +0.149 HD
BRANCH  23  24
ATOM      6  N   UNL     1      -6.706  -0.582   0.404  0.00  0.00    -0.250 NA
ATOM     24  C   UNL     1      -6.542   0.551  -0.315  0.00  0.00    +0.125 A 
ATOM     26  C   UNL     1      -7.586   1.292  -0.843  0.00  0.00    +0.033 A 
ATOM     28  C   UNL     1      -8.883   0.843  -0.619  0.00  0.00    +0.004 A 
ATOM     29  C   UNL     1      -7.980  -0.989   0.602  0.00  0.00    +0.111 A 
ATOM     31  C   UNL     1      -9.092  -0.319   0.117  0.00  0.00    +0.020 A 
ENDBRANCH  23  24
ENDBRANCH  15   4
BRANCH  11   1
ATOM      1  O   UNL     1       0.415  -2.303  -1.438  0.00  0.00    -0.391 OA
ATOM     36  H   UNL     1       0.584  -1.657  -2.144  0.00  0.00    +0.210 HD
ENDBRANCH  11   1
BRANCH  14  19
ATOM     19  C   UNL     1       3.043  -2.428  -0.131  0.00  0.00    +0.077 C 
ATOM     21  C   UNL     1       2.762  -3.306   1.084  0.00  0.00    +0.017 C 
BRANCH  19  22
ATOM      2  O   UNL     1       5.300  -2.249   0.729  0.00  0.00    -0.276 OA
ATOM      5  N   UNL     1       4.781  -1.168  -1.257  0.00  0.00    -0.309 N 
ATOM     22  C   UNL     1       4.494  -1.955  -0.150  0.00  0.00    +0.217 C 
ATOM     37  H   UNL     1       4.073  -1.015  -1.967  0.00  0.00    +0.149 HD
BRANCH   5  25
ATOM     25  C   UNL     1       6.088  -0.601  -1.494  0.00  0.00    +0.159 C 
BRANCH  25  27
ATOM      7  N   UNL     1       7.001   0.770   0.292  0.00  0.00    -0.258 NA
ATOM     27  C   UNL     1       6.249   0.736  -0.831  0.00  0.00    +0.058 A 
ATOM     30  C   UNL     1       5.636   1.847  -1.387  0.00  0.00    +0.025 A 
ATOM     32  C   UNL     1       5.805   3.071  -0.750  0.00  0.00    +0.003 A 
ATOM     33  C   UNL     1       7.143   1.977   0.884  0.00  0.00    +0.111 A 
ATOM     34  C   UNL     1       6.572   3.146   0.408  0.00  0.00    +0.020 A 
ENDBRANCH  25  27
ENDBRANCH   5  25
ENDBRANCH  19  22
ENDBRANCH  14  19
TORSDOF 7
