REMARK  Name = 45360931
REMARK  10 active torsions:
REMARK  status: ('A' for Active; 'I' for Inactive)
REMARK    1  A    between atoms: O_4  and  C_31
REMARK    2  A    between atoms: O_4  and  C_32
REMARK    3  A    between atoms: N_5  and  C_16
REMARK    4  A    between atoms: N_6  and  C_18
REMARK    5  A    between atoms: N_8  and  C_25
REMARK    6  A    between atoms: C_13  and  C_17
REMARK    7  A    between atoms: C_16  and  C_20
REMARK    8  A    between atoms: C_17  and  C_19
REMARK    9  A    between atoms: C_19  and  C_21
REMARK   10  A    between atoms: C_25  and  C_26
REMARK                            x       y       z     vdW  Elec       q    Type
REMARK                         _______ _______ _______ _____ _____    ______ ____
ROOT
ATOM      2  O   UNL     1       3.244   2.513  -0.518  0.00  0.00    -0.274 OA
ATOM      5  N   UNL     1       3.174  -0.100   0.160  0.00  0.00    -0.285 NA
ATOM      6  N   UNL     1      -0.015   1.350   1.219  0.00  0.00    -0.296 NA
ATOM      7  N   UNL     1       1.046   2.618  -1.145  0.00  0.00    -0.312 N 
ATOM      9  C   UNL     1       0.855   0.230   0.798  0.00  0.00    +0.084 C 
ATOM     10  C   UNL     1       1.909   0.488  -0.319  0.00  0.00    +0.161 C 
ATOM     11  C   UNL     1       1.725  -0.346   1.931  0.00  0.00    +0.036 C 
ATOM     12  C   UNL     1       2.831  -1.070   1.193  0.00  0.00    +0.087 C 
ATOM     13  C   UNL     1      -0.922   1.860   0.153  0.00  0.00    +0.074 C 
ATOM     14  C   UNL     1       2.154   1.959  -0.648  0.00  0.00    +0.232 C 
ATOM     15  C   UNL     1      -0.269   2.017  -1.234  0.00  0.00    +0.123 C 
ATOM     18  C   UNL     1      -0.789   0.990   2.419  0.00  0.00    +0.105 C 
ATOM     33  H   UNL     1       1.148   3.594  -1.406  0.00  0.00    +0.149 HD
ENDROOT
BRANCH   5  16
ATOM     16  C   UNL     1       3.975  -0.692  -0.904  0.00  0.00    +0.127 C 
BRANCH  16  20
ATOM      1  S   UNL     1       6.362  -2.088  -1.164  0.00  0.00    -0.100 S 
ATOM     20  C   UNL     1       5.421  -0.811  -0.519  0.00  0.00    +0.004 A 
ATOM     22  C   UNL     1       6.153  -0.005   0.324  0.00  0.00    +0.012 A 
ATOM     23  C   UNL     1       7.504  -0.441   0.442  0.00  0.00    +0.008 A 
ATOM     24  C   UNL     1       7.753  -1.564  -0.315  0.00  0.00    +0.045 A 
ENDBRANCH  16  20
ENDBRANCH   5  16
BRANCH  13  17
ATOM     17  C   UNL     1      -1.503   3.233   0.551  0.00  0.00    +0.029 C 
BRANCH  17  19
ATOM     19  C   UNL     1      -2.817   3.487  -0.165  0.00  0.00    +0.097 C 
BRANCH  19  21
ATOM      3  O   UNL     1      -4.252   2.222   1.318  0.00  0.00    -0.276 OA
ATOM      8  N   UNL     1      -4.280   1.750  -0.955  0.00  0.00    -0.311 N 
ATOM     21  C   UNL     1      -3.853   2.432   0.176  0.00  0.00    +0.213 C 
ATOM     34  H   UNL     1      -3.880   1.969  -1.862  0.00  0.00    +0.149 HD
BRANCH   8  25
ATOM     25  C   UNL     1      -5.264   0.695  -0.893  0.00  0.00    +0.139 C 
BRANCH  25  26
ATOM     26  C   UNL     1      -4.632  -0.651  -0.688  0.00  0.00    -0.030 A 
ATOM     27  C   UNL     1      -3.986  -1.288  -1.747  0.00  0.00    +0.009 A 
ATOM     28  C   UNL     1      -4.692  -1.265   0.564  0.00  0.00    +0.009 A 
ATOM     29  C   UNL     1      -3.399  -2.539  -1.555  0.00  0.00    +0.046 A 
ATOM     30  C   UNL     1      -4.105  -2.516   0.756  0.00  0.00    +0.046 A 
ATOM     31  C   UNL     1      -3.459  -3.153  -0.304  0.00  0.00    +0.120 A 
BRANCH  31   4
ATOM      4  O   UNL     1      -2.886  -4.373  -0.116  0.00  0.00    -0.495 OA
ATOM     32  C   UNL     1      -2.984  -4.943   1.188  0.00  0.00    +0.277 C 
ENDBRANCH  31   4
ENDBRANCH  25  26
ENDBRANCH   8  25
ENDBRANCH  19  21
ENDBRANCH  17  19
ENDBRANCH  13  17
TORSDOF 8
