REMARK  Name = 75368472
REMARK  2 active torsions:
REMARK  status: ('A' for Active; 'I' for Inactive)
REMARK    1  A    between atoms: N_5  and  C_13
REMARK    2  A    between atoms: C_12  and  C_14
REMARK                            x       y       z     vdW  Elec       q    Type
REMARK                         _______ _______ _______ _____ _____    ______ ____
ROOT
ATOM      1  O   UNL     1      -4.667  -0.731  -0.225  0.00  0.00    -0.252 OA
ATOM      2  O   UNL     1       2.077  -2.552  -0.172  0.00  0.00    -0.270 OA
ATOM      3  N   UNL     1      -2.328  -0.516  -0.257  0.00  0.00    -0.278 N 
ATOM      4  N   UNL     1       0.314  -1.115   0.363  0.00  0.00    -0.294 N 
ATOM      5  N   UNL     1      -3.564   1.333   0.059  0.00  0.00    -0.287 N 
ATOM      6  C   UNL     1      -1.363   0.570  -0.239  0.00  0.00    +0.112 C 
ATOM      7  C   UNL     1      -0.202   0.229   0.689  0.00  0.00    +0.132 C 
ATOM      8  C   UNL     1      -2.188   1.781   0.188  0.00  0.00    +0.133 C 
ATOM      9  C   UNL     1      -1.877  -1.880  -0.474  0.00  0.00    +0.128 C 
ATOM     10  C   UNL     1      -0.687  -2.189   0.434  0.00  0.00    +0.127 C 
ATOM     11  C   UNL     1      -3.648  -0.057  -0.154  0.00  0.00    +0.305 C 
ATOM     12  C   UNL     1       1.640  -1.425   0.056  0.00  0.00    +0.247 C 
ATOM     13  C   UNL     1      -4.682   2.226   0.269  0.00  0.00    +0.133 C 
ENDROOT
BRANCH  12  14
ATOM     14  C   UNL     1       2.608  -0.324  -0.018  0.00  0.00    +0.037 A 
ATOM     15  C   UNL     1       3.310   0.066   1.122  0.00  0.00    +0.013 A 
ATOM     16  C   UNL     1       2.828   0.331  -1.230  0.00  0.00    +0.013 A 
ATOM     17  C   UNL     1       4.231   1.111   1.051  0.00  0.00    +0.001 A 
ATOM     18  C   UNL     1       3.748   1.376  -1.301  0.00  0.00    +0.001 A 
ATOM     19  C   UNL     1       4.450   1.766  -0.161  0.00  0.00    +0.000 A 
ENDBRANCH  12  14
TORSDOF 1
