REMARK  Name = 38028017
REMARK  10 active torsions:
REMARK  status: ('A' for Active; 'I' for Inactive)
REMARK    1  A    between atoms: N_3  and  C_13
REMARK    2  A    between atoms: N_5  and  C_30
REMARK    3  A    between atoms: C_6  and  C_10
REMARK    4  A    between atoms: C_7  and  C_13
REMARK    5  A    between atoms: C_9  and  C_14
REMARK    6  A    between atoms: C_10  and  C_15
REMARK    7  A    between atoms: C_10  and  C_16
REMARK    8  A    between atoms: C_11  and  C_18
REMARK    9  A    between atoms: C_14  and  C_19
REMARK   10  A    between atoms: C_17  and  C_22
REMARK                            x       y       z     vdW  Elec       q    Type
REMARK                         _______ _______ _______ _____ _____    ______ ____
ROOT
ATOM      6  C   UNL     1      -2.096   1.381   0.808  0.00  0.00    +0.000 C 
ATOM      7  C   UNL     1      -3.276   1.191  -0.178  0.00  0.00    +0.032 C 
ATOM      8  C   UNL     1      -1.245   2.593   0.399  0.00  0.00    +0.012 C 
ATOM      9  C   UNL     1      -0.673   2.450  -1.024  0.00  0.00    +0.023 C 
ATOM     11  C   UNL     1      -1.730   2.000  -2.013  0.00  0.00    -0.073 C 
ATOM     12  C   UNL     1      -2.892   1.452  -1.616  0.00  0.00    -0.022 C 
ATOM     18  C   UNL     1      -1.438   2.236  -3.469  0.00  0.00    +0.039 C 
ENDROOT
BRANCH   6  10
ATOM     10  C   UNL     1      -2.583   1.552   2.251  0.00  0.00    -0.013 C 
ATOM     15  C   UNL     1      -1.491   1.142   3.233  0.00  0.00    +0.007 C 
ATOM     16  C   UNL     1      -3.020   2.992   2.497  0.00  0.00    +0.007 C 
ENDBRANCH   6  10
BRANCH   7  13
ATOM     13  C   UNL     1      -3.877  -0.214  -0.057  0.00  0.00    +0.112 C 
BRANCH  13   3
ATOM      2  O   UNL     1      -2.801  -2.398   1.524  0.00  0.00    -0.276 OA
ATOM      3  N   UNL     1      -2.937  -1.206  -0.474  0.00  0.00    -0.315 N 
ATOM     22  C   UNL     1      -2.470  -2.225   0.353  0.00  0.00    +0.216 C 
ATOM     31  H   UNL     1      -2.675  -1.218  -1.455  0.00  0.00    +0.149 HD
BRANCH  22  17
ATOM     17  C   UNL     1      -1.511  -3.143  -0.341  0.00  0.00    +0.075 C 
ATOM     20  C   UNL     1      -0.295  -2.353  -0.828  0.00  0.00    +0.013 C 
ATOM     21  C   UNL     1      -1.104  -4.265   0.616  0.00  0.00    +0.013 C 
ATOM     23  C   UNL     1       0.755  -3.270  -1.450  0.00  0.00    +0.001 C 
ATOM     24  C   UNL     1      -0.051  -5.178  -0.006  0.00  0.00    +0.001 C 
ATOM     25  C   UNL     1       1.161  -4.389  -0.495  0.00  0.00    +0.000 C 
ENDBRANCH  22  17
ENDBRANCH  13   3
ENDBRANCH   7  13
BRANCH   9  14
ATOM     14  C   UNL     1       0.533   1.504  -1.041  0.00  0.00    +0.103 C 
BRANCH  14  19
ATOM      1  O   UNL     1       1.628   3.358  -0.051  0.00  0.00    -0.276 OA
ATOM      4  N   UNL     1       2.914   1.453  -0.388  0.00  0.00    -0.299 N 
ATOM      5  N   UNL     1       5.089  -0.201   0.474  0.00  0.00    -0.302 NA
ATOM     19  C   UNL     1       1.736   2.195  -0.450  0.00  0.00    +0.216 C 
ATOM     26  C   UNL     1       4.123   2.050   0.176  0.00  0.00    +0.123 C 
ATOM     27  C   UNL     1       3.108   0.122  -0.971  0.00  0.00    +0.123 C 
ATOM     28  C   UNL     1       4.823   1.086   1.133  0.00  0.00    +0.103 C 
ATOM     29  C   UNL     1       3.834  -0.806   0.005  0.00  0.00    +0.103 C 
ATOM     30  C   UNL     1       5.789  -1.108   1.383  0.00  0.00    +0.105 C 
ENDBRANCH  14  19
ENDBRANCH   9  14
TORSDOF 6
