REMARK  Name = 11883300
REMARK  4 active torsions:
REMARK  status: ('A' for Active; 'I' for Inactive)
REMARK    1  A    between atoms: O_3  and  C_9
REMARK    2  A    between atoms: O_3  and  C_17
REMARK    3  A    between atoms: N_5  and  C_8
REMARK    4  A    between atoms: C_11  and  C_16
REMARK                            x       y       z     vdW  Elec       q    Type
REMARK                         _______ _______ _______ _____ _____    ______ ____
ROOT
ATOM      1  O   UNL     1      -1.898   0.349   1.353  0.00  0.00    -0.369 OA
ATOM      2  O   UNL     1      -1.856  -1.665  -0.959  0.00  0.00    -0.369 OA
ATOM      6  C   UNL     1      -0.938  -0.615  -0.589  0.00  0.00    +0.172 C 
ATOM      7  C   UNL     1      -1.774   0.535  -0.067  0.00  0.00    +0.180 C 
ATOM      8  C   UNL     1      -0.119  -1.040   0.607  0.00  0.00    +0.130 C 
ATOM      9  C   UNL     1      -3.092   0.330  -0.775  0.00  0.00    +0.175 C 
ATOM     10  C   UNL     1      -1.057  -0.741   1.763  0.00  0.00    +0.185 C 
ATOM     12  C   UNL     1      -3.199  -1.178  -0.818  0.00  0.00    +0.194 C 
ENDROOT
BRANCH   8   5
ATOM      4  O   UNL     1       2.506  -1.754  -0.408  0.00  0.00    -0.276 OA
ATOM      5  N   UNL     1       1.098  -0.272   0.707  0.00  0.00    -0.307 N 
ATOM     16  C   UNL     1       2.311  -0.698   0.188  0.00  0.00    +0.216 C 
ATOM     18  H   UNL     1       1.049   0.645   1.141  0.00  0.00    +0.149 HD
BRANCH  16  11
ATOM     11  C   UNL     1       3.403   0.287   0.405  0.00  0.00    +0.075 C 
ATOM     13  C   UNL     1       3.309   1.613  -0.377  0.00  0.00    +0.013 C 
ATOM     14  C   UNL     1       4.729   0.029  -0.341  0.00  0.00    +0.013 C 
ATOM     15  C   UNL     1       4.846   1.560  -0.502  0.00  0.00    +0.001 C 
ENDBRANCH  16  11
ENDBRANCH   8   5
BRANCH   9   3
ATOM      3  O   UNL     1      -4.186   0.920  -0.112  0.00  0.00    -0.375 OA
ATOM     17  C   UNL     1      -4.082   2.341  -0.073  0.00  0.00    +0.194 C 
ENDBRANCH   9   3
TORSDOF 3
