REMARK  Name = 75537103
REMARK  4 active torsions:
REMARK  status: ('A' for Active; 'I' for Inactive)
REMARK    1  A    between atoms: N_3  and  C_12
REMARK    2  A    between atoms: N_4  and  C_14
REMARK    3  A    between atoms: N_5  and  C_20
REMARK    4  A    between atoms: C_12  and  C_13
REMARK                            x       y       z     vdW  Elec       q    Type
REMARK                         _______ _______ _______ _____ _____    ______ ____
ROOT
ATOM      1  O   UNL     1       5.470   1.138  -0.075  0.00  0.00    -0.252 OA
ATOM      2  N   UNL     1       3.165   0.683  -0.093  0.00  0.00    -0.278 N 
ATOM      3  N   UNL     1       0.492   0.633   0.782  0.00  0.00    -0.295 NA
ATOM      4  N   UNL     1       4.577  -0.951  -0.708  0.00  0.00    -0.287 N 
ATOM      6  C   UNL     1       2.303  -0.395  -0.530  0.00  0.00    +0.109 C 
ATOM      7  C   UNL     1       1.192  -0.635   0.491  0.00  0.00    +0.109 C 
ATOM      8  C   UNL     1       3.261  -1.569  -0.724  0.00  0.00    +0.132 C 
ATOM      9  C   UNL     1       2.572   1.926   0.357  0.00  0.00    +0.125 C 
ATOM     10  C   UNL     1       1.427   1.636   1.331  0.00  0.00    +0.104 C 
ATOM     11  C   UNL     1       4.523   0.388  -0.271  0.00  0.00    +0.305 C 
ATOM     14  C   UNL     1       5.781  -1.707  -0.971  0.00  0.00    +0.133 C 
ENDROOT
BRANCH   3  12
ATOM     12  C   UNL     1      -0.612   0.403   1.713  0.00  0.00    +0.121 C 
BRANCH  12  13
ATOM      5  N   UNL     1      -3.312  -1.691   0.347  0.00  0.00    -0.349 N 
ATOM     13  C   UNL     1      -1.804  -0.212   1.028  0.00  0.00    -0.008 A 
ATOM     15  C   UNL     1      -2.737   0.459   0.189  0.00  0.00    +0.004 A 
ATOM     16  C   UNL     1      -2.184  -1.532   1.106  0.00  0.00    +0.091 A 
ATOM     17  C   UNL     1      -3.673  -0.492  -0.225  0.00  0.00    +0.049 A 
ATOM     18  C   UNL     1      -2.877   1.787  -0.260  0.00  0.00    +0.010 A 
ATOM     19  C   UNL     1      -4.745  -0.180  -1.068  0.00  0.00    +0.026 A 
ATOM     20  C   UNL     1      -4.012  -2.946   0.181  0.00  0.00    +0.149 C 
ATOM     21  C   UNL     1      -3.944   2.114  -1.104  0.00  0.00    +0.001 A 
ATOM     22  C   UNL     1      -4.863   1.144  -1.500  0.00  0.00    +0.002 A 
ENDBRANCH  12  13
ENDBRANCH   3  12
TORSDOF 2
