REMARK  Name = 45783473
REMARK  10 active torsions:
REMARK  status: ('A' for Active; 'I' for Inactive)
REMARK    1  A    between atoms: O_2  and  C_29
REMARK    2  A    between atoms: O_2  and  C_30
REMARK    3  A    between atoms: N_3  and  C_13
REMARK    4  A    between atoms: N_7  and  C_26
REMARK    5  A    between atoms: N_7  and  C_28
REMARK    6  A    between atoms: C_9  and  C_14
REMARK    7  A    between atoms: C_13  and  C_15
REMARK    8  A    between atoms: C_18  and  C_21
REMARK    9  A    between atoms: C_22  and  C_27
REMARK   10  A    between atoms: C_28  and  C_29
REMARK                            x       y       z     vdW  Elec       q    Type
REMARK                         _______ _______ _______ _____ _____    ______ ____
ROOT
ATOM      1  O   UNL     1      -2.492  -1.479   1.992  0.00  0.00    -0.336 OA
ATOM      4  N   UNL     1      -1.569  -1.121  -0.017  0.00  0.00    -0.190 NA
ATOM      5  N   UNL     1      -1.106  -1.490   2.193  0.00  0.00    -0.056 NA
ATOM     14  C   UNL     1      -2.678  -1.256   0.665  0.00  0.00    +0.245 A 
ATOM     18  C   UNL     1      -0.631  -1.272   0.963  0.00  0.00    +0.204 A 
ENDROOT
BRANCH  18  21
ATOM      6  N   UNL     1       3.050  -1.301   1.484  0.00  0.00    -0.240 NA
ATOM     21  C   UNL     1       0.773  -1.201   0.679  0.00  0.00    +0.041 A 
ATOM     23  C   UNL     1       1.232  -0.975  -0.614  0.00  0.00    +0.016 A 
ATOM     24  C   UNL     1       1.714  -1.357   1.683  0.00  0.00    +0.124 A 
ATOM     25  C   UNL     1       2.599  -0.911  -0.859  0.00  0.00    +0.044 A 
ATOM     26  C   UNL     1       3.459  -1.079   0.214  0.00  0.00    +0.119 A 
BRANCH  26   7
ATOM      7  N   UNL     1       4.849  -1.013  -0.051  0.00  0.00    -0.327 N 
ATOM     31  H   UNL     1       5.467  -1.134   0.743  0.00  0.00    +0.148 HD
BRANCH   7  28
ATOM     28  C   UNL     1       5.374  -0.784  -1.359  0.00  0.00    +0.131 C 
BRANCH  28  29
ATOM     29  C   UNL     1       6.892  -0.802  -1.320  0.00  0.00    +0.178 C 
BRANCH  29   2
ATOM      2  O   UNL     1       7.357   0.240  -0.472  0.00  0.00    -0.381 OA
ATOM     30  C   UNL     1       8.776   0.267  -0.409  0.00  0.00    +0.194 C 
ENDBRANCH  29   2
ENDBRANCH  28  29
ENDBRANCH   7  28
ENDBRANCH  26   7
ENDBRANCH  18  21
BRANCH  14   9
ATOM      3  N   UNL     1      -4.276  -0.359  -1.019  0.00  0.00    -0.287 NA
ATOM      9  C   UNL     1      -4.114  -1.197   0.185  0.00  0.00    +0.146 C 
ATOM     10  C   UNL     1      -4.661  -2.577  -0.222  0.00  0.00    +0.030 C 
ATOM     11  C   UNL     1      -5.163  -2.401  -1.648  0.00  0.00    +0.017 C 
ATOM     12  C   UNL     1      -5.412  -0.910  -1.757  0.00  0.00    +0.085 C 
BRANCH   3  13
ATOM     13  C   UNL     1      -4.453   1.055  -0.716  0.00  0.00    +0.120 C 
BRANCH  13  15
ATOM     15  C   UNL     1      -3.144   1.732  -0.408  0.00  0.00    -0.033 A 
ATOM     16  C   UNL     1      -2.955   2.359   0.823  0.00  0.00    +0.006 A 
ATOM     17  C   UNL     1      -2.119   1.730  -1.355  0.00  0.00    +0.006 A 
ATOM     19  C   UNL     1      -1.742   2.986   1.108  0.00  0.00    +0.019 A 
ATOM     20  C   UNL     1      -0.906   2.357  -1.070  0.00  0.00    +0.019 A 
ATOM     22  C   UNL     1      -0.717   2.984   0.161  0.00  0.00    +0.052 A 
BRANCH  22  27
ATOM      8  N   UNL     1       1.535   4.147   0.690  0.00  0.00    -0.191 NA
ATOM     27  C   UNL     1       0.526   3.626   0.453  0.00  0.00    +0.099 C 
ENDBRANCH  22  27
ENDBRANCH  13  15
ENDBRANCH   3  13
ENDBRANCH  14   9
TORSDOF 9
