REMARK  Name = 11885877
REMARK  3 active torsions:
REMARK  status: ('A' for Active; 'I' for Inactive)
REMARK    1  A    between atoms: N_8  and  C_19
REMARK    2  A    between atoms: C_18  and  C_21
REMARK    3  A    between atoms: C_24  and  C_28
REMARK                            x       y       z     vdW  Elec       q    Type
REMARK                         _______ _______ _______ _____ _____    ______ ____
ROOT
ATOM      2  O   UNL     1       1.227   2.458   1.333  0.00  0.00    -0.266 OA
ATOM      3  O   UNL     1      -3.036  -0.194   2.581  0.00  0.00    -0.270 OA
ATOM      6  N   UNL     1      -3.381   0.752   0.469  0.00  0.00    -0.297 N 
ATOM      7  N   UNL     1      -0.588   2.142  -0.104  0.00  0.00    -0.310 N 
ATOM      9  C   UNL     1      -2.888   3.187   0.321  0.00  0.00    +0.027 C 
ATOM     10  C   UNL     1      -2.542   1.748  -1.646  0.00  0.00    +0.054 C 
ATOM     11  C   UNL     1      -3.042   3.119  -1.194  0.00  0.00    +0.018 C 
ATOM     12  C   UNL     1      -3.713   2.076   0.995  0.00  0.00    +0.113 C 
ATOM     13  C   UNL     1      -1.398   3.093   0.671  0.00  0.00    +0.130 C 
ATOM     14  C   UNL     1      -3.403   0.645  -0.999  0.00  0.00    +0.117 C 
ATOM     15  C   UNL     1      -1.086   1.547  -1.268  0.00  0.00    +0.027 A 
ATOM     16  C   UNL     1      -0.291   0.772  -2.024  0.00  0.00    +0.024 A 
ATOM     17  C   UNL     1       0.739   1.943   0.326  0.00  0.00    +0.273 A 
ATOM     18  C   UNL     1      -3.056  -0.278   1.354  0.00  0.00    +0.247 C 
ATOM     19  C   UNL     1       1.584   1.051  -0.530  0.00  0.00    +0.099 A 
ATOM     20  C   UNL     1       1.070   0.520  -1.644  0.00  0.00    +0.030 A 
ENDROOT
BRANCH  18  21
ATOM      1  F   UNL     1      -1.640  -5.237  -0.806  0.00  0.00    -0.205 F 
ATOM     21  C   UNL     1      -2.685  -1.579   0.787  0.00  0.00    +0.037 A 
ATOM     22  C   UNL     1      -1.351  -1.851   0.493  0.00  0.00    +0.016 A 
ATOM     23  C   UNL     1      -3.667  -2.536   0.547  0.00  0.00    +0.016 A 
ATOM     25  C   UNL     1      -0.998  -3.088  -0.046  0.00  0.00    +0.039 A 
ATOM     26  C   UNL     1      -3.314  -3.773   0.008  0.00  0.00    +0.039 A 
ATOM     27  C   UNL     1      -1.980  -4.049  -0.288  0.00  0.00    +0.123 A 
ENDBRANCH  18  21
BRANCH  19   8
ATOM      4  O   UNL     1       3.119  -1.288  -1.094  0.00  0.00    -0.266 OA
ATOM      8  N   UNL     1       2.869   0.818  -0.138  0.00  0.00    -0.275 N 
ATOM     24  C   UNL     1       3.564  -0.344  -0.445  0.00  0.00    +0.284 C 
ATOM     32  H   UNL     1       3.262   1.442   0.562  0.00  0.00    +0.155 HD
BRANCH  24  28
ATOM      5  O   UNL     1       5.380   0.658   0.728  0.00  0.00    -0.458 OA
ATOM     28  C   UNL     1       4.964  -0.408   0.050  0.00  0.00    +0.189 A 
ATOM     29  C   UNL     1       5.869  -1.379  -0.085  0.00  0.00    +0.054 A 
ATOM     30  C   UNL     1       7.011  -0.883   0.587  0.00  0.00    +0.042 A 
ATOM     31  C   UNL     1       6.663   0.360   1.064  0.00  0.00    +0.196 A 
ENDBRANCH  24  28
ENDBRANCH  19   8
TORSDOF 3
