REMARK  Name = 45783482
REMARK  9 active torsions:
REMARK  status: ('A' for Active; 'I' for Inactive)
REMARK    1  A    between atoms: O_2  and  C_27
REMARK    2  A    between atoms: O_2  and  C_28
REMARK    3  A    between atoms: N_3  and  C_9
REMARK    4  A    between atoms: N_4  and  C_19
REMARK    5  A    between atoms: N_8  and  C_25
REMARK    6  A    between atoms: N_8  and  C_26
REMARK    7  A    between atoms: C_10  and  C_18
REMARK    8  A    between atoms: C_20  and  C_21
REMARK    9  A    between atoms: C_26  and  C_27
REMARK                            x       y       z     vdW  Elec       q    Type
REMARK                         _______ _______ _______ _____ _____    ______ ____
ROOT
ATOM      1  O   UNL     1      -1.698   2.188  -1.738  0.00  0.00    -0.336 OA
ATOM      5  N   UNL     1      -0.921   1.175   0.103  0.00  0.00    -0.190 NA
ATOM      6  N   UNL     1      -0.317   2.048  -1.924  0.00  0.00    -0.056 NA
ATOM     18  C   UNL     1      -1.970   1.649  -0.520  0.00  0.00    +0.245 A 
ATOM     20  C   UNL     1       0.070   1.442  -0.797  0.00  0.00    +0.204 A 
ENDROOT
BRANCH  20  21
ATOM      7  N   UNL     1       3.737   1.066  -1.280  0.00  0.00    -0.240 NA
ATOM     21  C   UNL     1       1.436   1.092  -0.538  0.00  0.00    +0.041 A 
ATOM     22  C   UNL     1       1.803   0.464   0.646  0.00  0.00    +0.016 A 
ATOM     23  C   UNL     1       2.432   1.369  -1.461  0.00  0.00    +0.124 A 
ATOM     24  C   UNL     1       3.136   0.136   0.869  0.00  0.00    +0.044 A 
ATOM     25  C   UNL     1       4.056   0.456  -0.117  0.00  0.00    +0.119 A 
BRANCH  25   8
ATOM      8  N   UNL     1       5.410   0.116   0.125  0.00  0.00    -0.327 N 
ATOM     29  H   UNL     1       6.072   0.352  -0.605  0.00  0.00    +0.148 HD
BRANCH   8  26
ATOM     26  C   UNL     1       5.841  -0.528   1.323  0.00  0.00    +0.131 C 
BRANCH  26  27
ATOM     27  C   UNL     1       7.347  -0.724   1.295  0.00  0.00    +0.178 C 
BRANCH  27   2
ATOM      2  O   UNL     1       7.696  -1.559   0.199  0.00  0.00    -0.381 OA
ATOM     28  C   UNL     1       9.098  -1.777   0.135  0.00  0.00    +0.194 C 
ENDBRANCH  27   2
ENDBRANCH  26  27
ENDBRANCH   8  26
ENDBRANCH  25   8
ENDBRANCH  20  21
BRANCH  18  10
ATOM      3  N   UNL     1      -3.748   0.582   0.855  0.00  0.00    -0.288 NA
ATOM     10  C   UNL     1      -3.418   1.677  -0.079  0.00  0.00    +0.146 C 
ATOM     11  C   UNL     1      -4.826   1.079   1.710  0.00  0.00    +0.085 C 
ATOM     14  C   UNL     1      -3.783   2.965   0.684  0.00  0.00    +0.030 C 
ATOM     15  C   UNL     1      -4.364   2.491   2.009  0.00  0.00    +0.017 C 
BRANCH   3   9
ATOM      4  N   UNL     1      -3.593  -3.495  -0.337  0.00  0.00    -0.305 NA
ATOM      9  C   UNL     1      -4.112  -0.661   0.179  0.00  0.00    +0.060 C 
ATOM     12  C   UNL     1      -2.986  -1.131  -0.748  0.00  0.00    +0.034 C 
ATOM     13  C   UNL     1      -4.430  -1.750   1.207  0.00  0.00    +0.034 C 
ATOM     16  C   UNL     1      -3.320  -2.488  -1.372  0.00  0.00    +0.085 C 
ATOM     17  C   UNL     1      -4.716  -3.087   0.518  0.00  0.00    +0.085 C 
ATOM     19  C   UNL     1      -3.860  -4.797  -0.947  0.00  0.00    +0.104 C 
ENDBRANCH   3   9
ENDBRANCH  18  10
TORSDOF 7
