REMARK  Name = 28961265
REMARK  14 active torsions:
REMARK  status: ('A' for Active; 'I' for Inactive)
REMARK    1  A    between atoms: O_4  and  C_11
REMARK    2  A    between atoms: O_5  and  C_14
REMARK    3  A    between atoms: N_6  and  C_9
REMARK    4  A    between atoms: N_6  and  C_15
REMARK    5  A    between atoms: N_6  and  C_16
REMARK    6  A    between atoms: N_7  and  C_13
REMARK    7  A    between atoms: N_7  and  C_17
REMARK    8  A    between atoms: N_7  and  C_18
REMARK    9  A    between atoms: C_10  and  C_13
REMARK   10  A    between atoms: C_12  and  C_14
REMARK   11  A    between atoms: C_15  and  C_19
REMARK   12  A    between atoms: C_17  and  C_20
REMARK   13  A    between atoms: C_18  and  C_21
REMARK   14  A    between atoms: C_19  and  C_22
REMARK                            x       y       z     vdW  Elec       q    Type
REMARK                         _______ _______ _______ _____ _____    ______ ____
ROOT
ATOM      3  O   UNL     1      -0.859   1.114  -1.789  0.00  0.00    -0.366 OA
ATOM      9  C   UNL     1       1.334   1.929  -1.348  0.00  0.00    +0.118 C 
ATOM     10  C   UNL     1       0.359   0.773  -1.090  0.00  0.00    +0.152 C 
ATOM     11  C   UNL     1       0.408   3.106  -1.613  0.00  0.00    +0.165 C 
ATOM     12  C   UNL     1      -0.709   2.417  -2.387  0.00  0.00    +0.174 C 
ENDROOT
BRANCH  11   4
ATOM      4  O   UNL     1      -0.094   3.656  -0.402  0.00  0.00    -0.388 OA
ATOM     37  H   UNL     1      -0.591   4.461  -0.627  0.00  0.00    +0.210 HD
ENDBRANCH  11   4
BRANCH   9   6
ATOM      6  N   UNL     1       2.347   2.154  -0.332  0.00  0.00    -0.297 NA
ATOM     16  C   UNL     1       2.904   3.506  -0.440  0.00  0.00    +0.105 C 
BRANCH   6  15
ATOM     15  C   UNL     1       3.420   1.160  -0.436  0.00  0.00    +0.090 C 
BRANCH  15  19
ATOM     19  C   UNL     1       4.236   1.097   0.856  0.00  0.00    +0.071 C 
BRANCH  19  22
ATOM      8  N   UNL     1       6.541   0.553   0.293  0.00  0.00    -0.260 NA
ATOM     22  C   UNL     1       5.357   0.094   0.755  0.00  0.00    +0.042 A 
ATOM     27  C   UNL     1       5.128  -1.220   1.132  0.00  0.00    +0.023 A 
ATOM     32  C   UNL     1       6.183  -2.119   1.028  0.00  0.00    +0.003 A 
ATOM     35  C   UNL     1       7.543  -0.350   0.205  0.00  0.00    +0.111 A 
ATOM     36  C   UNL     1       7.416  -1.685   0.557  0.00  0.00    +0.020 A 
ENDBRANCH  19  22
ENDBRANCH  15  19
ENDBRANCH   6  15
ENDBRANCH   9   6
BRANCH  10  13
ATOM     13  C   UNL     1      -0.014   0.506   0.364  0.00  0.00    +0.118 C 
BRANCH  13   7
ATOM      7  N   UNL     1      -0.922  -0.626   0.469  0.00  0.00    -0.291 NA
BRANCH   7  17
ATOM     17  C   UNL     1      -0.194  -1.889   0.329  0.00  0.00    +0.120 C 
BRANCH  17  20
ATOM      1  F   UNL     1      -3.570  -6.085  -1.331  0.00  0.00    -0.205 F 
ATOM     20  C   UNL     1      -1.096  -3.010  -0.115  0.00  0.00    -0.033 A 
ATOM     23  C   UNL     1      -0.821  -4.322   0.272  0.00  0.00    +0.008 A 
ATOM     25  C   UNL     1      -2.208  -2.738  -0.912  0.00  0.00    +0.008 A 
ATOM     28  C   UNL     1      -1.656  -5.361  -0.138  0.00  0.00    +0.038 A 
ATOM     30  C   UNL     1      -3.043  -3.776  -1.323  0.00  0.00    +0.038 A 
ATOM     33  C   UNL     1      -2.768  -5.088  -0.936  0.00  0.00    +0.123 A 
ENDBRANCH  17  20
ENDBRANCH   7  17
BRANCH   7  18
ATOM     18  C   UNL     1      -1.641  -0.597   1.746  0.00  0.00    +0.120 C 
BRANCH  18  21
ATOM      2  F   UNL     1      -5.816   3.187   1.716  0.00  0.00    -0.205 F 
ATOM     21  C   UNL     1      -2.756   0.414   1.738  0.00  0.00    -0.033 A 
ATOM     24  C   UNL     1      -3.135   1.045   2.923  0.00  0.00    +0.008 A 
ATOM     26  C   UNL     1      -3.412   0.721   0.545  0.00  0.00    +0.008 A 
ATOM     29  C   UNL     1      -4.168   1.982   2.916  0.00  0.00    +0.038 A 
ATOM     31  C   UNL     1      -4.445   1.657   0.538  0.00  0.00    +0.038 A 
ATOM     34  C   UNL     1      -4.823   2.288   1.723  0.00  0.00    +0.123 A 
ENDBRANCH  18  21
ENDBRANCH   7  18
ENDBRANCH  13   7
ENDBRANCH  10  13
BRANCH  12  14
ATOM     14  C   UNL     1      -2.049   3.130  -2.374  0.00  0.00    +0.190 C 
BRANCH  14   5
ATOM      5  O   UNL     1      -2.976   2.377  -3.140  0.00  0.00    -0.392 OA
ATOM     38  H   UNL     1      -3.825   2.851  -3.109  0.00  0.00    +0.210 HD
ENDBRANCH  14   5
ENDBRANCH  12  14
TORSDOF 13
