REMARK  Name = 75367816
REMARK  5 active torsions:
REMARK  status: ('A' for Active; 'I' for Inactive)
REMARK    1  A    between atoms: O_2  and  C_10
REMARK    2  A    between atoms: O_2  and  C_19
REMARK    3  A    between atoms: N_8  and  C_21
REMARK    4  A    between atoms: N_8  and  C_22
REMARK    5  A    between atoms: C_19  and  C_20
REMARK                            x       y       z     vdW  Elec       q    Type
REMARK                         _______ _______ _______ _____ _____    ______ ____
ROOT
ATOM      1  O   UNL     1       3.130  -2.690   0.002  0.00  0.00    -0.376 OA
ATOM      3  O   UNL     1      -1.274   3.605   0.446  0.00  0.00    -0.377 OA
ATOM      4  O   UNL     1       2.610   1.157  -1.440  0.00  0.00    -0.252 OA
ATOM      6  N   UNL     1       2.285   0.072   0.576  0.00  0.00    -0.281 N 
ATOM      7  N   UNL     1       0.911   1.910  -0.082  0.00  0.00    -0.281 N 
ATOM      9  C   UNL     1       1.278  -0.778   1.229  0.00  0.00    +0.143 C 
ATOM     10  C   UNL     1       0.813  -1.949   0.355  0.00  0.00    +0.162 C 
ATOM     11  C   UNL     1       3.667  -0.402   0.682  0.00  0.00    +0.137 C 
ATOM     12  C   UNL     1       1.845  -2.555  -0.593  0.00  0.00    +0.193 C 
ATOM     13  C   UNL     1       1.981   1.059  -0.379  0.00  0.00    +0.305 C 
ATOM     14  C   UNL     1       3.974  -1.567  -0.250  0.00  0.00    +0.179 C 
ATOM     15  C   UNL     1       0.567   2.285   1.294  0.00  0.00    +0.137 C 
ATOM     16  C   UNL     1       0.468   2.878  -1.081  0.00  0.00    +0.137 C 
ATOM     17  C   UNL     1      -0.919   2.591   1.394  0.00  0.00    +0.179 C 
ATOM     18  C   UNL     1      -1.014   3.176  -0.894  0.00  0.00    +0.179 C 
ENDROOT
BRANCH  10   2
ATOM      2  O   UNL     1      -0.324  -1.550  -0.413  0.00  0.00    -0.364 OA
BRANCH   2  19
ATOM     19  C   UNL     1      -1.510  -1.600   0.363  0.00  0.00    +0.256 C 
BRANCH  19  20
ATOM      5  O   UNL     1      -2.488  -0.821  -1.649  0.00  0.00    -0.273 OA
ATOM      8  N   UNL     1      -3.953  -1.206   0.110  0.00  0.00    -0.306 N 
ATOM     20  C   UNL     1      -2.691  -1.171  -0.483  0.00  0.00    +0.241 C 
ATOM     21  C   UNL     1      -5.122  -0.812  -0.667  0.00  0.00    +0.131 C 
ATOM     22  C   UNL     1      -4.234  -1.631   1.480  0.00  0.00    +0.131 C 
ENDBRANCH  19  20
ENDBRANCH   2  19
ENDBRANCH  10   2
TORSDOF 3
