REMARK  Name = 75536642
REMARK  9 active torsions:
REMARK  status: ('A' for Active; 'I' for Inactive)
REMARK    1  A    between atoms: O_3  and  C_10
REMARK    2  A    between atoms: N_6  and  C_9
REMARK    3  A    between atoms: N_6  and  C_14
REMARK    4  A    between atoms: N_7  and  C_13
REMARK    5  A    between atoms: N_8  and  C_22
REMARK    6  A    between atoms: C_11  and  C_13
REMARK    7  A    between atoms: C_14  and  C_15
REMARK    8  A    between atoms: C_16  and  C_19
REMARK    9  A    between atoms: C_28  and  C_29
REMARK                            x       y       z     vdW  Elec       q    Type
REMARK                         _______ _______ _______ _____ _____    ______ ____
ROOT
ATOM      2  O   UNL     1       4.563   0.894   0.639  0.00  0.00    -0.371 OA
ATOM      9  C   UNL     1       3.545  -1.224   0.924  0.00  0.00    +0.111 C 
ATOM     10  C   UNL     1       4.166  -1.187  -0.461  0.00  0.00    +0.164 C 
ATOM     11  C   UNL     1       4.603   0.264  -0.655  0.00  0.00    +0.165 C 
ATOM     12  C   UNL     1       4.292  -0.104   1.630  0.00  0.00    +0.181 C 
ENDROOT
BRANCH  10   3
ATOM      3  O   UNL     1       5.324  -2.025  -0.442  0.00  0.00    -0.388 OA
ATOM     31  H   UNL     1       5.733  -1.975  -1.322  0.00  0.00    +0.210 HD
ENDBRANCH  10   3
BRANCH   9   6
ATOM      6  N   UNL     1       2.112  -0.943   0.880  0.00  0.00    -0.305 NA
ATOM     30  H   UNL     1       1.820  -0.548   1.774  0.00  0.00    +0.123 HD
BRANCH   6  14
ATOM     14  C   UNL     1       1.346  -2.160   0.641  0.00  0.00    +0.116 C 
BRANCH  14  15
ATOM     15  C   UNL     1      -0.134  -1.888   0.576  0.00  0.00    -0.033 A 
ATOM     17  C   UNL     1      -0.853  -1.660   1.749  0.00  0.00    +0.007 A 
ATOM     18  C   UNL     1      -0.785  -1.864  -0.657  0.00  0.00    +0.007 A 
ATOM     20  C   UNL     1      -2.223  -1.408   1.690  0.00  0.00    +0.023 A 
ATOM     21  C   UNL     1      -2.156  -1.612  -0.717  0.00  0.00    +0.023 A 
ATOM     22  C   UNL     1      -2.875  -1.384   0.457  0.00  0.00    +0.033 A 
BRANCH  22   8
ATOM      5  O   UNL     1      -4.732  -1.229  -1.908  0.00  0.00    -0.276 OA
ATOM      8  N   UNL     1      -4.246  -1.133   0.397  0.00  0.00    -0.286 N 
ATOM     28  C   UNL     1      -5.065  -1.070  -0.738  0.00  0.00    +0.214 C 
ATOM     29  C   UNL     1      -6.499  -0.773  -0.377  0.00  0.00    +0.109 C 
ATOM     33  H   UNL     1      -4.698  -0.976   1.295  0.00  0.00    +0.155 HD
ENDBRANCH  22   8
ENDBRANCH  14  15
ENDBRANCH   6  14
ENDBRANCH   9   6
BRANCH  11  13
ATOM     13  C   UNL     1       3.703   1.050  -1.597  0.00  0.00    +0.138 C 
BRANCH  13   7
ATOM      4  O   UNL     1       1.002   0.386  -2.308  0.00  0.00    -0.270 OA
ATOM      7  N   UNL     1       2.510   1.489  -0.932  0.00  0.00    -0.309 N 
ATOM     16  C   UNL     1       1.236   1.117  -1.348  0.00  0.00    +0.244 C 
ATOM     32  H   UNL     1       2.629   2.161  -0.182  0.00  0.00    +0.149 HD
BRANCH  16  19
ATOM      1  F   UNL     1      -3.052   3.236   1.593  0.00  0.00    -0.205 F 
ATOM     19  C   UNL     1       0.101   1.678  -0.570  0.00  0.00    +0.037 A 
ATOM     23  C   UNL     1      -1.142   1.852  -1.177  0.00  0.00    +0.016 A 
ATOM     24  C   UNL     1       0.280   2.031   0.768  0.00  0.00    +0.016 A 
ATOM     25  C   UNL     1      -2.208   2.379  -0.447  0.00  0.00    +0.039 A 
ATOM     26  C   UNL     1      -0.785   2.558   1.498  0.00  0.00    +0.039 A 
ATOM     27  C   UNL     1      -2.029   2.732   0.891  0.00  0.00    +0.123 A 
ENDBRANCH  16  19
ENDBRANCH  13   7
ENDBRANCH  11  13
TORSDOF 8
