REMARK  Name = 51136998
REMARK  4 active torsions:
REMARK  status: ('A' for Active; 'I' for Inactive)
REMARK    1  A    between atoms: O_3  and  C_12
REMARK    2  A    between atoms: O_3  and  C_19
REMARK    3  A    between atoms: C_6  and  C_10
REMARK    4  A    between atoms: C_11  and  C_12
REMARK                            x       y       z     vdW  Elec       q    Type
REMARK                         _______ _______ _______ _____ _____    ______ ____
ROOT
ATOM      2  O   UNL     1      -1.604  -0.807  -2.081  0.00  0.00    -0.272 OA
ATOM      4  N   UNL     1      -0.325  -1.369  -0.241  0.00  0.00    -0.298 N 
ATOM      6  C   UNL     1       1.869  -2.251   0.009  0.00  0.00    +0.063 C 
ATOM      7  C   UNL     1       1.121  -2.346   1.348  0.00  0.00    +0.031 C 
ATOM      8  C   UNL     1       0.716  -2.066  -0.986  0.00  0.00    +0.118 C 
ATOM      9  C   UNL     1      -0.044  -1.377   1.191  0.00  0.00    +0.108 C 
ATOM     11  C   UNL     1      -1.413  -0.784  -0.864  0.00  0.00    +0.253 C 
ENDROOT
BRANCH   6  10
ATOM      1  S   UNL     1       4.509  -1.548   0.554  0.00  0.00    -0.072 S 
ATOM      5  N   UNL     1       2.713   0.086  -0.317  0.00  0.00    -0.244 NA
ATOM     10  C   UNL     1       2.925  -1.161   0.035  0.00  0.00    +0.084 A 
ATOM     13  C   UNL     1       4.983   0.090   0.295  0.00  0.00    +0.039 A 
ATOM     14  C   UNL     1       3.884   0.816  -0.174  0.00  0.00    +0.078 A 
ATOM     15  C   UNL     1       6.238   0.689   0.492  0.00  0.00    +0.017 A 
ATOM     16  C   UNL     1       4.049   2.189  -0.455  0.00  0.00    +0.029 A 
ATOM     17  C   UNL     1       6.374   2.050   0.206  0.00  0.00    +0.001 A 
ATOM     18  C   UNL     1       5.295   2.792  -0.261  0.00  0.00    +0.002 A 
ENDBRANCH   6  10
BRANCH  11  12
ATOM     12  C   UNL     1      -2.394  -0.097   0.051  0.00  0.00    +0.324 C 
BRANCH  12   3
ATOM      3  O   UNL     1      -3.393   0.455  -0.772  0.00  0.00    -0.483 OA
BRANCH   3  19
ATOM     19  C   UNL     1      -4.647   0.613  -0.226  0.00  0.00    +0.121 A 
ATOM     20  C   UNL     1      -4.787   0.847   1.143  0.00  0.00    +0.045 A 
ATOM     21  C   UNL     1      -5.777   0.540  -1.040  0.00  0.00    +0.045 A 
ATOM     22  C   UNL     1      -6.057   1.007   1.696  0.00  0.00    +0.004 A 
ATOM     23  C   UNL     1      -7.047   0.700  -0.486  0.00  0.00    +0.004 A 
ATOM     24  C   UNL     1      -7.187   0.933   0.882  0.00  0.00    +0.000 A 
ENDBRANCH   3  19
ENDBRANCH  12   3
ENDBRANCH  11  12
TORSDOF 4
