REMARK  Name = 26743284
REMARK  10 active torsions:
REMARK  status: ('A' for Active; 'I' for Inactive)
REMARK    1  A    between atoms: N_3  and  C_8
REMARK    2  A    between atoms: C_6  and  C_12
REMARK    3  A    between atoms: C_7  and  C_15
REMARK    4  A    between atoms: C_12  and  C_16
REMARK    5  A    between atoms: C_15  and  C_17
REMARK    6  A    between atoms: C_19  and  C_21
REMARK    7  A    between atoms: C_20  and  C_22
REMARK    8  A    between atoms: C_20  and  C_27
REMARK    9  A    between atoms: C_20  and  C_28
REMARK   10  A    between atoms: C_20  and  C_29
REMARK                            x       y       z     vdW  Elec       q    Type
REMARK                         _______ _______ _______ _____ _____    ______ ____
ROOT
ATOM     15  C   UNL     1       1.511   0.589   0.287  0.00  0.00    +0.064 C 
ENDROOT
BRANCH  15   7
ATOM      4  N   UNL     1       2.259  -3.088  -0.457  0.00  0.00    -0.316 NA
ATOM      6  C   UNL     1       3.631  -0.778   0.763  0.00  0.00    +0.004 C 
ATOM      7  C   UNL     1       2.105  -0.804   0.504  0.00  0.00    +0.012 C 
ATOM      9  C   UNL     1       4.143  -2.223   0.885  0.00  0.00    +0.019 C 
ATOM     13  C   UNL     1       1.743  -1.734  -0.665  0.00  0.00    +0.085 C 
ATOM     14  C   UNL     1       3.711  -3.097  -0.291  0.00  0.00    +0.081 C 
ATOM     31  H   UNL     1       2.007  -3.671  -1.254  0.00  0.00    +0.122 HD
BRANCH   6  12
ATOM     12  C   UNL     1       4.429  -0.003  -0.292  0.00  0.00    +0.099 C 
BRANCH  12  16
ATOM      1  O   UNL     1       6.183   0.207   1.361  0.00  0.00    -0.276 OA
ATOM      3  N   UNL     1       6.495   1.115  -0.755  0.00  0.00    -0.312 N 
ATOM     16  C   UNL     1       5.784   0.434   0.222  0.00  0.00    +0.214 C 
ATOM     30  H   UNL     1       6.078   1.262  -1.671  0.00  0.00    +0.149 HD
BRANCH   3   8
ATOM      8  C   UNL     1       7.821   1.648  -0.540  0.00  0.00    +0.073 C 
ATOM     10  C   UNL     1       8.758   1.885  -1.687  0.00  0.00    +0.024 C 
ATOM     11  C   UNL     1       9.040   0.789  -0.702  0.00  0.00    +0.024 C 
ENDBRANCH   3   8
ENDBRANCH  12  16
ENDBRANCH   6  12
ENDBRANCH  15   7
BRANCH  15  17
ATOM      2  O   UNL     1      -1.788   0.807   1.712  0.00  0.00    -0.354 OA
ATOM      5  N   UNL     1      -0.403   0.875   1.802  0.00  0.00    -0.083 NA
ATOM     17  C   UNL     1       0.036   0.604   0.570  0.00  0.00    +0.085 A 
ATOM     18  C   UNL     1      -1.016   0.359  -0.330  0.00  0.00    +0.076 A 
ATOM     19  C   UNL     1      -2.141   0.499   0.438  0.00  0.00    +0.167 A 
BRANCH  19  21
ATOM     21  C   UNL     1      -3.550   0.394   0.191  0.00  0.00    +0.020 A 
ATOM     22  C   UNL     1      -6.290   0.188  -0.289  0.00  0.00    -0.042 A 
ATOM     23  C   UNL     1      -4.012   0.082  -1.087  0.00  0.00    +0.012 A 
ATOM     24  C   UNL     1      -4.457   0.603   1.230  0.00  0.00    +0.012 A 
ATOM     25  C   UNL     1      -5.382  -0.022  -1.327  0.00  0.00    +0.005 A 
ATOM     26  C   UNL     1      -5.827   0.500   0.990  0.00  0.00    +0.005 A 
BRANCH  22  20
ATOM     20  C   UNL     1      -7.755   0.078  -0.546  0.00  0.00    -0.013 C 
ATOM     27  C   UNL     1      -8.134  -1.347  -1.056  0.00  0.00    +0.015 C 
ATOM     28  C   UNL     1      -8.218   1.103  -1.626  0.00  0.00    +0.015 C 
ATOM     29  C   UNL     1      -8.675   0.335   0.694  0.00  0.00    +0.015 C 
ENDBRANCH  22  20
ENDBRANCH  19  21
ENDBRANCH  15  17
TORSDOF 7
