REMARK  Name = 7682247
REMARK  5 active torsions:
REMARK  status: ('A' for Active; 'I' for Inactive)
REMARK    1  A    between atoms: O_3  and  C_27
REMARK    2  A    between atoms: O_3  and  C_28
REMARK    3  A    between atoms: N_4  and  C_13
REMARK    4  A    between atoms: C_13  and  C_18
REMARK    5  A    between atoms: C_14  and  C_19
REMARK                            x       y       z     vdW  Elec       q    Type
REMARK                         _______ _______ _______ _____ _____    ______ ____
ROOT
ATOM      2  O   UNL     1      -3.269   1.417  -2.954  0.00  0.00    -0.268 OA
ATOM      4  N   UNL     1      -0.114   2.101   0.834  0.00  0.00    -0.297 NA
ATOM      5  N   UNL     1      -2.495   0.809  -0.829  0.00  0.00    -0.311 N 
ATOM      6  C   UNL     1      -2.571   2.446   1.146  0.00  0.00    +0.024 C 
ATOM      7  C   UNL     1      -1.630   0.208   1.452  0.00  0.00    +0.051 C 
ATOM      8  C   UNL     1      -2.671   1.187   1.989  0.00  0.00    +0.017 C 
ATOM      9  C   UNL     1      -1.155   3.049   1.246  0.00  0.00    +0.090 C 
ATOM     10  C   UNL     1      -0.221   0.837   1.576  0.00  0.00    +0.094 C 
ATOM     11  C   UNL     1      -2.957   2.098  -0.293  0.00  0.00    +0.130 C 
ATOM     12  C   UNL     1      -1.928  -0.182  -0.001  0.00  0.00    +0.034 A 
ATOM     14  C   UNL     1      -1.653  -1.413  -0.511  0.00  0.00    +0.009 A 
ATOM     15  C   UNL     1      -2.764   0.592  -2.192  0.00  0.00    +0.252 A 
ATOM     16  C   UNL     1      -1.913  -1.669  -1.916  0.00  0.00    +0.016 A 
ATOM     17  C   UNL     1      -2.420  -0.743  -2.730  0.00  0.00    +0.071 A 
ENDROOT
BRANCH  14  19
ATOM      1  S   UNL     1      -2.148  -3.516   1.146  0.00  0.00    -0.097 S 
ATOM     19  C   UNL     1      -1.097  -2.446   0.320  0.00  0.00    +0.021 A 
ATOM     22  C   UNL     1       0.228  -2.725   0.572  0.00  0.00    +0.016 A 
ATOM     25  C   UNL     1       0.383  -3.833   1.454  0.00  0.00    +0.008 A 
ATOM     26  C   UNL     1      -0.830  -4.358   1.843  0.00  0.00    +0.046 A 
ENDBRANCH  14  19
BRANCH   4  13
ATOM     13  C   UNL     1       1.216   2.686   0.984  0.00  0.00    +0.119 C 
BRANCH  13  18
ATOM     18  C   UNL     1       2.292   1.773   0.473  0.00  0.00    -0.033 A 
ATOM     20  C   UNL     1       2.126   1.131  -0.748  0.00  0.00    +0.008 A 
ATOM     21  C   UNL     1       3.444   1.579   1.226  0.00  0.00    +0.008 A 
ATOM     23  C   UNL     1       3.125   0.282  -1.224  0.00  0.00    +0.046 A 
ATOM     24  C   UNL     1       4.444   0.731   0.750  0.00  0.00    +0.046 A 
ATOM     27  C   UNL     1       4.285   0.082  -0.474  0.00  0.00    +0.120 A 
BRANCH  27   3
ATOM      3  O   UNL     1       5.260  -0.746  -0.939  0.00  0.00    -0.495 OA
ATOM     28  C   UNL     1       5.032  -1.377  -2.198  0.00  0.00    +0.277 C 
ENDBRANCH  27   3
ENDBRANCH  13  18
ENDBRANCH   4  13
TORSDOF 4
