REMARK  Name = 38029110
REMARK  15 active torsions:
REMARK  status: ('A' for Active; 'I' for Inactive)
REMARK    1  A    between atoms: S_1  and  N_6
REMARK    2  A    between atoms: S_1  and  C_22
REMARK    3  A    between atoms: O_5  and  C_32
REMARK    4  A    between atoms: O_5  and  C_35
REMARK    5  A    between atoms: N_6  and  C_16
REMARK    6  A    between atoms: N_7  and  C_23
REMARK    7  A    between atoms: N_7  and  C_24
REMARK    8  A    between atoms: C_9  and  C_13
REMARK    9  A    between atoms: C_10  and  C_16
REMARK   10  A    between atoms: C_12  and  C_17
REMARK   11  A    between atoms: C_13  and  C_18
REMARK   12  A    between atoms: C_13  and  C_19
REMARK   13  A    between atoms: C_14  and  C_20
REMARK   14  A    between atoms: C_17  and  C_21
REMARK   15  A    between atoms: C_23  and  C_25
REMARK                            x       y       z     vdW  Elec       q    Type
REMARK                         _______ _______ _______ _____ _____    ______ ____
ROOT
ATOM      9  C   UNL     1       1.864   1.010  -1.276  0.00  0.00    +0.000 C 
ATOM     10  C   UNL     1       3.295   1.466  -0.893  0.00  0.00    +0.030 C 
ATOM     11  C   UNL     1       0.948   2.227  -1.471  0.00  0.00    +0.012 C 
ATOM     12  C   UNL     1       0.859   3.099  -0.204  0.00  0.00    +0.023 C 
ATOM     14  C   UNL     1       2.227   3.369   0.390  0.00  0.00    -0.073 C 
ATOM     15  C   UNL     1       3.306   2.638   0.060  0.00  0.00    -0.023 C 
ATOM     20  C   UNL     1       2.335   4.531   1.339  0.00  0.00    +0.039 C 
ENDROOT
BRANCH   9  13
ATOM     13  C   UNL     1       1.862   0.150  -2.544  0.00  0.00    -0.013 C 
ATOM     18  C   UNL     1       0.457  -0.369  -2.832  0.00  0.00    +0.007 C 
ATOM     19  C   UNL     1       2.397   0.949  -3.729  0.00  0.00    +0.007 C 
ENDBRANCH   9  13
BRANCH  10  16
ATOM     16  C   UNL     1       4.101   0.309  -0.290  0.00  0.00    +0.113 C 
BRANCH  16   6
ATOM      6  N   UNL     1       3.491  -0.086   0.990  0.00  0.00    -0.189 NA
ATOM     36  H   UNL     1       3.387   0.648   1.700  0.00  0.00    +0.148 HD
BRANCH   6   1
ATOM      1  S   UNL     1       3.598  -1.699   1.527  0.00  0.00    +0.058 S 
ATOM      3  O   UNL     1       3.458  -1.732   2.971  0.00  0.00    -0.153 OA
ATOM      4  O   UNL     1       4.734  -2.338   0.890  0.00  0.00    -0.153 OA
BRANCH   1  22
ATOM     22  C   UNL     1       2.142  -2.411   0.822  0.00  0.00    +0.105 A 
ATOM     26  C   UNL     1       0.945  -2.402   1.537  0.00  0.00    +0.032 A 
ATOM     27  C   UNL     1       2.191  -2.982  -0.450  0.00  0.00    +0.032 A 
ATOM     28  C   UNL     1      -0.204  -2.964   0.980  0.00  0.00    +0.047 A 
ATOM     29  C   UNL     1       1.042  -3.544  -1.006  0.00  0.00    +0.047 A 
ATOM     32  C   UNL     1      -0.156  -3.535  -0.291  0.00  0.00    +0.120 A 
BRANCH  32   5
ATOM      5  O   UNL     1      -1.277  -4.084  -0.834  0.00  0.00    -0.495 OA
ATOM     35  C   UNL     1      -2.466  -4.041  -0.047  0.00  0.00    +0.277 C 
ENDBRANCH  32   5
ENDBRANCH   1  22
ENDBRANCH   6   1
ENDBRANCH  16   6
ENDBRANCH  10  16
BRANCH  12  17
ATOM     17  C   UNL     1      -0.075   2.469   0.835  0.00  0.00    +0.103 C 
BRANCH  17  21
ATOM      2  O   UNL     1      -1.867   3.182  -0.589  0.00  0.00    -0.276 OA
ATOM      7  N   UNL     1      -2.456   2.062   1.355  0.00  0.00    -0.300 N 
ATOM     21  C   UNL     1      -1.538   2.612   0.455  0.00  0.00    +0.216 C 
ATOM     24  C   UNL     1      -2.043   1.393   2.583  0.00  0.00    +0.132 C 
BRANCH   7  23
ATOM     23  C   UNL     1      -3.899   2.117   1.133  0.00  0.00    +0.144 C 
BRANCH  23  25
ATOM      8  N   UNL     1      -5.571  -1.213   0.490  0.00  0.00    -0.263 NA
ATOM     25  C   UNL     1      -4.403   0.902   0.409  0.00  0.00    -0.012 A 
ATOM     30  C   UNL     1      -4.190   0.740  -0.955  0.00  0.00    +0.008 A 
ATOM     31  C   UNL     1      -5.093  -0.095   1.080  0.00  0.00    +0.115 A 
ATOM     33  C   UNL     1      -4.667  -0.397  -1.598  0.00  0.00    +0.020 A 
ATOM     34  C   UNL     1      -5.345  -1.335  -0.837  0.00  0.00    +0.111 A 
ENDBRANCH  23  25
ENDBRANCH   7  23
ENDBRANCH  17  21
ENDBRANCH  12  17
TORSDOF 10
