REMARK  Name = 26744872
REMARK  4 active torsions:
REMARK  status: ('A' for Active; 'I' for Inactive)
REMARK    1  A    between atoms: N_2  and  C_13
REMARK    2  A    between atoms: C_8  and  C_14
REMARK    3  A    between atoms: C_13  and  C_15
REMARK    4  A    between atoms: C_19  and  C_22
REMARK                            x       y       z     vdW  Elec       q    Type
REMARK                         _______ _______ _______ _____ _____    ______ ____
ROOT
ATOM      2  N   UNL     1       1.654  -0.169  -0.446  0.00  0.00    -0.281 NA
ATOM      3  N   UNL     1       1.205  -3.349   1.439  0.00  0.00    -0.347 N 
ATOM      4  N   UNL     1       0.568  -4.180  -0.537  0.00  0.00    -0.240 NA
ATOM      8  C   UNL     1       0.650  -0.472  -1.511  0.00  0.00    +0.152 C 
ATOM      9  C   UNL     1       0.607  -2.006  -1.849  0.00  0.00    +0.086 C 
ATOM     10  C   UNL     1       1.446  -0.872   0.838  0.00  0.00    +0.140 C 
ATOM     11  C   UNL     1       1.166  -2.300   0.573  0.00  0.00    +0.053 A 
ATOM     12  C   UNL     1       0.768  -2.832  -0.628  0.00  0.00    +0.065 A 
ATOM     16  C   UNL     1       0.837  -4.462   0.723  0.00  0.00    +0.197 A 
ATOM     28  H   UNL     1       1.452  -3.321   2.420  0.00  0.00    +0.167 HD
ENDROOT
BRANCH   8  14
ATOM      1  O   UNL     1      -1.135   1.070  -2.200  0.00  0.00    -0.336 OA
ATOM      5  N   UNL     1      -1.614  -0.109  -0.356  0.00  0.00    -0.190 NA
ATOM      6  N   UNL     1      -2.415   1.475  -1.800  0.00  0.00    -0.056 NA
ATOM     14  C   UNL     1      -0.737   0.136  -1.296  0.00  0.00    +0.245 A 
ATOM     19  C   UNL     1      -2.627   0.736  -0.707  0.00  0.00    +0.202 A 
BRANCH  19  22
ATOM      7  N   UNL     1      -6.201   0.972   1.542  0.00  0.00    -0.263 NA
ATOM     22  C   UNL     1      -3.839   0.816   0.056  0.00  0.00    +0.025 A 
ATOM     24  C   UNL     1      -4.007   0.022   1.185  0.00  0.00    +0.031 A 
ATOM     25  C   UNL     1      -4.851   1.688  -0.331  0.00  0.00    +0.031 A 
ATOM     26  C   UNL     1      -5.196   0.137   1.887  0.00  0.00    +0.111 A 
ATOM     27  C   UNL     1      -6.002   1.728   0.439  0.00  0.00    +0.111 A 
ENDBRANCH  19  22
ENDBRANCH   8  14
BRANCH   2  13
ATOM     13  C   UNL     1       1.895   1.255  -0.243  0.00  0.00    +0.120 C 
BRANCH  13  15
ATOM     15  C   UNL     1       3.319   1.531   0.162  0.00  0.00    -0.033 A 
ATOM     17  C   UNL     1       3.670   1.544   1.512  0.00  0.00    +0.005 A 
ATOM     18  C   UNL     1       4.287   1.772  -0.813  0.00  0.00    +0.005 A 
ATOM     20  C   UNL     1       4.989   1.800   1.887  0.00  0.00    +0.000 A 
ATOM     21  C   UNL     1       5.606   2.027  -0.438  0.00  0.00    +0.000 A 
ATOM     23  C   UNL     1       5.957   2.041   0.912  0.00  0.00    +0.000 A 
ENDBRANCH  13  15
ENDBRANCH   2  13
TORSDOF 4
