REMARK  Name = 45783355
REMARK  10 active torsions:
REMARK  status: ('A' for Active; 'I' for Inactive)
REMARK    1  A    between atoms: O_2  and  C_20
REMARK    2  A    between atoms: O_2  and  C_22
REMARK    3  A    between atoms: O_3  and  C_23
REMARK    4  A    between atoms: O_3  and  C_24
REMARK    5  A    between atoms: N_4  and  C_12
REMARK    6  A    between atoms: C_8  and  C_13
REMARK    7  A    between atoms: C_12  and  C_14
REMARK    8  A    between atoms: C_14  and  C_15
REMARK    9  A    between atoms: C_16  and  C_17
REMARK   10  A    between atoms: C_22  and  C_23
REMARK                            x       y       z     vdW  Elec       q    Type
REMARK                         _______ _______ _______ _____ _____    ______ ____
ROOT
ATOM      1  O   UNL     1      -2.485   2.077   0.829  0.00  0.00    -0.336 OA
ATOM      5  N   UNL     1      -1.087   0.347   0.565  0.00  0.00    -0.190 NA
ATOM      6  N   UNL     1      -1.225   2.631   0.567  0.00  0.00    -0.056 NA
ATOM     13  C   UNL     1      -2.315   0.729   0.810  0.00  0.00    +0.245 A 
ATOM     16  C   UNL     1      -0.455   1.548   0.422  0.00  0.00    +0.202 A 
ENDROOT
BRANCH  16  17
ATOM      7  N   UNL     1       3.683   1.796  -0.420  0.00  0.00    -0.221 NA
ATOM     17  C   UNL     1       0.948   1.632   0.137  0.00  0.00    +0.029 A 
ATOM     18  C   UNL     1       1.703   0.472  -0.003  0.00  0.00    +0.079 A 
ATOM     19  C   UNL     1       1.559   2.873  -0.002  0.00  0.00    +0.031 A 
ATOM     20  C   UNL     1       3.054   0.608  -0.278  0.00  0.00    +0.215 A 
ATOM     21  C   UNL     1       2.916   2.901  -0.278  0.00  0.00    +0.115 A 
BRANCH  20   2
ATOM      2  O   UNL     1       3.820  -0.520  -0.420  0.00  0.00    -0.474 OA
BRANCH   2  22
ATOM     22  C   UNL     1       5.200  -0.325  -0.702  0.00  0.00    +0.258 C 
BRANCH  22  23
ATOM     23  C   UNL     1       5.881  -1.677  -0.799  0.00  0.00    +0.200 C 
BRANCH  23   3
ATOM      3  O   UNL     1       5.750  -2.353   0.445  0.00  0.00    -0.380 OA
ATOM     24  C   UNL     1       6.353  -3.639   0.405  0.00  0.00    +0.194 C 
ENDBRANCH  23   3
ENDBRANCH  22  23
ENDBRANCH   2  22
ENDBRANCH  20   2
ENDBRANCH  16  17
BRANCH  13   8
ATOM      4  N   UNL     1      -3.837  -1.050  -0.031  0.00  0.00    -0.291 NA
ATOM      8  C   UNL     1      -3.548  -0.111   1.070  0.00  0.00    +0.146 C 
ATOM      9  C   UNL     1      -3.408  -1.002   2.318  0.00  0.00    +0.030 C 
ATOM     10  C   UNL     1      -4.511  -2.200   0.572  0.00  0.00    +0.085 C 
ATOM     11  C   UNL     1      -3.695  -2.416   1.831  0.00  0.00    +0.017 C 
BRANCH   4  12
ATOM     12  C   UNL     1      -4.625  -0.454  -1.103  0.00  0.00    +0.085 C 
BRANCH  12  14
ATOM     14  C   UNL     1      -4.440  -1.241  -2.398  0.00  0.00    +0.012 C 
ATOM     15  C   UNL     1      -5.236  -0.625  -3.538  0.00  0.00    +0.005 C 
ENDBRANCH  12  14
ENDBRANCH   4  12
ENDBRANCH  13   8
TORSDOF 8
