REMARK  Name = 51136639
REMARK  13 active torsions:
REMARK  status: ('A' for Active; 'I' for Inactive)
REMARK    1  A    between atoms: S_1  and  N_9
REMARK    2  A    between atoms: S_1  and  C_21
REMARK    3  A    between atoms: O_4  and  C_19
REMARK    4  A    between atoms: O_6  and  C_29
REMARK    5  A    between atoms: O_6  and  C_34
REMARK    6  A    between atoms: O_7  and  C_30
REMARK    7  A    between atoms: O_7  and  C_35
REMARK    8  A    between atoms: O_8  and  C_33
REMARK    9  A    between atoms: O_8  and  C_36
REMARK   10  A    between atoms: C_11  and  C_16
REMARK   11  A    between atoms: C_12  and  C_17
REMARK   12  A    between atoms: C_16  and  C_18
REMARK   13  A    between atoms: C_17  and  C_19
REMARK                            x       y       z     vdW  Elec       q    Type
REMARK                         _______ _______ _______ _____ _____    ______ ____
ROOT
ATOM      9  N   UNL     1      -0.801  -0.058  -0.627  0.00  0.00    -0.176 NA
ATOM     11  C   UNL     1      -0.420  -2.105   0.730  0.00  0.00    +0.014 C 
ATOM     12  C   UNL     1      -1.446  -2.855  -0.153  0.00  0.00    +0.006 C 
ATOM     13  C   UNL     1      -0.755  -0.605   0.761  0.00  0.00    +0.113 C 
ATOM     14  C   UNL     1      -1.559  -2.219  -1.547  0.00  0.00    +0.021 C 
ATOM     15  C   UNL     1      -1.846  -0.724  -1.457  0.00  0.00    +0.110 C 
ENDROOT
BRANCH   9   1
ATOM      1  S   UNL     1      -0.751   1.651  -0.744  0.00  0.00    +0.061 S 
ATOM      2  O   UNL     1      -0.657   2.025  -2.139  0.00  0.00    -0.153 OA
ATOM      3  O   UNL     1       0.190   2.159   0.230  0.00  0.00    -0.153 OA
BRANCH   1  21
ATOM     21  C   UNL     1      -2.378   2.045  -0.186  0.00  0.00    +0.106 A 
ATOM     26  C   UNL     1      -3.426   2.135  -1.101  0.00  0.00    +0.032 A 
ATOM     27  C   UNL     1      -2.615   2.269   1.170  0.00  0.00    +0.032 A 
ATOM     31  C   UNL     1      -4.712   2.449  -0.661  0.00  0.00    +0.047 A 
ATOM     32  C   UNL     1      -3.901   2.584   1.611  0.00  0.00    +0.047 A 
ATOM     33  C   UNL     1      -4.949   2.674   0.695  0.00  0.00    +0.120 A 
BRANCH  33   8
ATOM      8  O   UNL     1      -6.204   2.981   1.125  0.00  0.00    -0.495 OA
ATOM     36  C   UNL     1      -7.228   3.057   0.135  0.00  0.00    +0.277 C 
ENDBRANCH  33   8
ENDBRANCH   1  21
ENDBRANCH   9   1
BRANCH  11  16
ATOM     16  C   UNL     1       1.041  -2.321   0.312  0.00  0.00    +0.060 C 
BRANCH  16  18
ATOM     10  N   UNL     1       1.911  -1.862   2.503  0.00  0.00    -0.287 NA
ATOM     18  C   UNL     1       1.958  -1.568   1.246  0.00  0.00    +0.044 C 
ATOM     20  C   UNL     1       2.856  -0.528   0.681  0.00  0.00    +0.003 A 
ATOM     22  C   UNL     1       3.392   0.399   1.583  0.00  0.00    -0.033 A 
ATOM     23  C   UNL     1       3.020   0.294   3.032  0.00  0.00    +0.059 C 
ATOM     24  C   UNL     1       2.845  -1.173   3.401  0.00  0.00    +0.146 C 
ATOM     25  C   UNL     1       3.156  -0.448  -0.680  0.00  0.00    +0.059 A 
ATOM     28  C   UNL     1       4.213   1.427   1.110  0.00  0.00    +0.053 A 
ATOM     29  C   UNL     1       3.989   0.573  -1.141  0.00  0.00    +0.162 A 
ATOM     30  C   UNL     1       4.514   1.509  -0.250  0.00  0.00    +0.162 A 
BRANCH  29   6
ATOM      6  O   UNL     1       4.282   0.646  -2.470  0.00  0.00    -0.491 OA
ATOM     34  C   UNL     1       3.406   1.424  -3.283  0.00  0.00    +0.277 C 
ENDBRANCH  29   6
BRANCH  30   7
ATOM      7  O   UNL     1       5.321   2.511  -0.696  0.00  0.00    -0.491 OA
ATOM     35  C   UNL     1       6.723   2.248  -0.730  0.00  0.00    +0.277 C 
ENDBRANCH  30   7
ENDBRANCH  16  18
ENDBRANCH  11  16
BRANCH  12  17
ATOM     17  C   UNL     1      -1.161  -4.353  -0.265  0.00  0.00    +0.124 C 
BRANCH  17  19
ATOM      5  O   UNL     1      -3.510  -4.666  -0.839  0.00  0.00    -0.251 OA
ATOM     19  C   UNL     1      -2.396  -5.126  -0.636  0.00  0.00    +0.305 C 
BRANCH  19   4
ATOM      4  O   UNL     1      -2.100  -6.449  -0.720  0.00  0.00    -0.481 OA
ATOM     37  H   UNL     1      -2.885  -6.985  -0.961  0.00  0.00    +0.295 HD
ENDBRANCH  19   4
ENDBRANCH  17  19
ENDBRANCH  12  17
TORSDOF 10
