REMARK  Name = 75536692
REMARK  9 active torsions:
REMARK  status: ('A' for Active; 'I' for Inactive)
REMARK    1  A    between atoms: S_1  and  N_7
REMARK    2  A    between atoms: S_1  and  C_16
REMARK    3  A    between atoms: O_3  and  C_10
REMARK    4  A    between atoms: N_6  and  C_9
REMARK    5  A    between atoms: N_6  and  C_14
REMARK    6  A    between atoms: N_7  and  C_13
REMARK    7  A    between atoms: C_11  and  C_13
REMARK    8  A    between atoms: C_14  and  C_15
REMARK    9  A    between atoms: C_21  and  C_27
REMARK                            x       y       z     vdW  Elec       q    Type
REMARK                         _______ _______ _______ _____ _____    ______ ____
ROOT
ATOM      2  O   UNL     1       0.724  -1.106   1.590  0.00  0.00    -0.371 OA
ATOM      9  C   UNL     1      -1.186  -1.428   0.215  0.00  0.00    +0.111 C 
ATOM     10  C   UNL     1       0.011  -1.118  -0.665  0.00  0.00    +0.164 C 
ATOM     11  C   UNL     1       1.161  -1.469   0.270  0.00  0.00    +0.164 C 
ATOM     12  C   UNL     1      -0.703  -0.928   1.567  0.00  0.00    +0.181 C 
ENDROOT
BRANCH  10   3
ATOM      3  O   UNL     1       0.036  -1.896  -1.846  0.00  0.00    -0.388 OA
ATOM     29  H   UNL     1       0.014  -2.835  -1.595  0.00  0.00    +0.210 HD
ENDBRANCH  10   3
BRANCH   9   6
ATOM      6  N   UNL     1      -2.414  -0.784  -0.221  0.00  0.00    -0.305 NA
ATOM     28  H   UNL     1      -2.511  -0.902  -1.230  0.00  0.00    +0.123 HD
BRANCH   6  14
ATOM     14  C   UNL     1      -3.576  -1.369   0.437  0.00  0.00    +0.116 C 
BRANCH  14  15
ATOM     15  C   UNL     1      -4.857  -0.702   0.009  0.00  0.00    -0.032 A 
ATOM     17  C   UNL     1      -5.194   0.553   0.515  0.00  0.00    +0.023 A 
ATOM     18  C   UNL     1      -5.705  -1.340  -0.896  0.00  0.00    +0.005 A 
ATOM     21  C   UNL     1      -6.380   1.170   0.117  0.00  0.00    +0.052 A 
ATOM     22  C   UNL     1      -6.891  -0.723  -1.294  0.00  0.00    +0.002 A 
ATOM     23  C   UNL     1      -7.229   0.532  -0.788  0.00  0.00    +0.019 A 
BRANCH  21  27
ATOM      8  N   UNL     1      -7.008   3.501   1.055  0.00  0.00    -0.191 NA
ATOM     27  C   UNL     1      -6.726   2.456   0.635  0.00  0.00    +0.099 C 
ENDBRANCH  21  27
ENDBRANCH  14  15
ENDBRANCH   6  14
ENDBRANCH   9   6
BRANCH  11  13
ATOM     13  C   UNL     1       2.449  -0.738  -0.063  0.00  0.00    +0.140 C 
BRANCH  13   7
ATOM      7  N   UNL     1       3.505  -1.136   0.889  0.00  0.00    -0.187 NA
ATOM     30  H   UNL     1       3.298  -0.966   1.881  0.00  0.00    +0.148 HD
BRANCH   7   1
ATOM      1  S   UNL     1       5.132  -1.164   0.394  0.00  0.00    +0.058 S 
ATOM      4  O   UNL     1       5.259  -1.985  -0.795  0.00  0.00    -0.153 OA
ATOM      5  O   UNL     1       5.972  -1.419   1.548  0.00  0.00    -0.153 OA
BRANCH   1  16
ATOM     16  C   UNL     1       5.397   0.520  -0.075  0.00  0.00    +0.105 A 
ATOM     19  C   UNL     1       5.848   1.444   0.867  0.00  0.00    +0.028 A 
ATOM     20  C   UNL     1       5.152   0.924  -1.388  0.00  0.00    +0.028 A 
ATOM     24  C   UNL     1       6.055   2.773   0.496  0.00  0.00    +0.002 A 
ATOM     25  C   UNL     1       5.358   2.253  -1.758  0.00  0.00    +0.002 A 
ATOM     26  C   UNL     1       5.810   3.177  -0.816  0.00  0.00    +0.000 A 
ENDBRANCH   1  16
ENDBRANCH   7   1
ENDBRANCH  13   7
ENDBRANCH  11  13
TORSDOF 9
