REMARK  Name = 40587807
REMARK  6 active torsions:
REMARK  status: ('A' for Active; 'I' for Inactive)
REMARK    1  A    between atoms: N_5  and  C_22
REMARK    2  A    between atoms: N_6  and  C_23
REMARK    3  A    between atoms: N_6  and  C_31
REMARK    4  A    between atoms: N_6  and  C_32
REMARK    5  A    between atoms: C_17  and  C_19
REMARK    6  A    between atoms: C_20  and  C_23
REMARK                            x       y       z     vdW  Elec       q    Type
REMARK                         _______ _______ _______ _____ _____    ______ ____
ROOT
ATOM      1  O   UNL     1      -0.911   0.306   1.986  0.00  0.00    -0.267 OA
ATOM      2  O   UNL     1       3.118  -0.546  -2.107  0.00  0.00    -0.252 OA
ATOM      3  N   UNL     1      -0.151  -1.489   0.705  0.00  0.00    -0.311 N 
ATOM      4  N   UNL     1       2.770  -2.105  -0.432  0.00  0.00    -0.284 N 
ATOM      5  N   UNL     1       4.019  -0.148  -0.008  0.00  0.00    -0.269 N 
ATOM      7  C   UNL     1       1.625  -3.127   1.549  0.00  0.00    +0.027 C 
ATOM      8  C   UNL     1       0.669  -3.414  -0.696  0.00  0.00    +0.054 C 
ATOM      9  C   UNL     1       0.948  -4.130   0.623  0.00  0.00    +0.018 C 
ATOM     10  C   UNL     1       0.643  -1.985   1.838  0.00  0.00    +0.130 C 
ATOM     11  C   UNL     1       2.943  -2.611   0.939  0.00  0.00    +0.114 C 
ATOM     12  C   UNL     1       2.004  -2.981  -1.327  0.00  0.00    +0.119 C 
ATOM     13  C   UNL     1      -0.220  -2.203  -0.493  0.00  0.00    +0.027 A 
ATOM     14  C   UNL     1      -1.046  -1.797  -1.471  0.00  0.00    +0.022 A 
ATOM     15  C   UNL     1      -0.917  -0.328   0.929  0.00  0.00    +0.259 A 
ATOM     16  C   UNL     1       3.290  -0.891  -0.935  0.00  0.00    +0.306 C 
ATOM     17  C   UNL     1      -1.802   0.125  -0.201  0.00  0.00    +0.047 A 
ATOM     18  C   UNL     1      -1.842  -0.612  -1.321  0.00  0.00    +0.015 A 
ATOM     34  H   UNL     1       4.523  -0.651   0.715  0.00  0.00    +0.156 HD
ENDROOT
BRANCH  17  19
ATOM     19  C   UNL     1      -2.604   1.356  -0.095  0.00  0.00    -0.008 A 
ATOM     20  C   UNL     1      -3.907   1.331   0.403  0.00  0.00    -0.026 A 
ATOM     21  C   UNL     1      -2.037   2.562  -0.506  0.00  0.00    +0.009 A 
ATOM     24  C   UNL     1      -4.642   2.513   0.490  0.00  0.00    +0.005 A 
ATOM     25  C   UNL     1      -2.773   3.744  -0.419  0.00  0.00    +0.001 A 
ATOM     26  C   UNL     1      -4.076   3.720   0.079  0.00  0.00    +0.000 A 
BRANCH  20  23
ATOM     23  C   UNL     1      -4.547   0.057   0.853  0.00  0.00    +0.119 C 
BRANCH  23   6
ATOM      6  N   UNL     1      -4.979  -0.772  -0.271  0.00  0.00    -0.304 NA
ATOM     31  C   UNL     1      -6.252  -0.289  -0.803  0.00  0.00    +0.104 C 
ATOM     32  C   UNL     1      -5.094  -2.171   0.140  0.00  0.00    +0.104 C 
ENDBRANCH  23   6
ENDBRANCH  20  23
ENDBRANCH  17  19
BRANCH   5  22
ATOM     22  C   UNL     1       4.158   1.261   0.042  0.00  0.00    +0.035 A 
ATOM     27  C   UNL     1       4.994   1.845   0.994  0.00  0.00    +0.023 A 
ATOM     28  C   UNL     1       3.460   2.063  -0.860  0.00  0.00    +0.023 A 
ATOM     29  C   UNL     1       5.130   3.233   1.044  0.00  0.00    +0.002 A 
ATOM     30  C   UNL     1       3.596   3.450  -0.810  0.00  0.00    +0.002 A 
ATOM     33  C   UNL     1       4.432   4.035   0.141  0.00  0.00    +0.000 A 
ENDBRANCH   5  22
TORSDOF 4
