REMARK  Name = 7050109
REMARK  9 active torsions:
REMARK  status: ('A' for Active; 'I' for Inactive)
REMARK    1  A    between atoms: O_3  and  C_11
REMARK    2  A    between atoms: O_4  and  C_13
REMARK    3  A    between atoms: N_8  and  C_12
REMARK    4  A    between atoms: N_9  and  C_18
REMARK    5  A    between atoms: C_15  and  C_17
REMARK    6  A    between atoms: C_18  and  C_20
REMARK    7  A    between atoms: C_18  and  C_23
REMARK    8  A    between atoms: C_19  and  C_21
REMARK    9  A    between atoms: C_20  and  C_22
REMARK                            x       y       z     vdW  Elec       q    Type
REMARK                         _______ _______ _______ _____ _____    ______ ____
ROOT
ATOM     11  C   UNL     1      -0.594   3.491   0.171  0.00  0.00    +0.167 C 
ATOM     12  C   UNL     1      -0.628   2.212  -0.687  0.00  0.00    +0.128 C 
ATOM     13  C   UNL     1       0.690   4.294  -0.068  0.00  0.00    +0.149 C 
ATOM     14  C   UNL     1       1.954   3.452   0.181  0.00  0.00    +0.074 C 
ATOM     15  C   UNL     1       1.828   2.034  -0.297  0.00  0.00    +0.015 C 
ATOM     16  C   UNL     1       0.680   1.468  -0.697  0.00  0.00    +0.006 C 
ENDROOT
BRANCH  15  17
ATOM      5  O   UNL     1       4.003   1.551  -1.044  0.00  0.00    -0.271 OA
ATOM      9  N   UNL     1       2.962   0.076   0.431  0.00  0.00    -0.300 N 
ATOM     17  C   UNL     1       3.042   1.214  -0.352  0.00  0.00    +0.241 C 
ATOM     37  H   UNL     1       2.150  -0.057   1.028  0.00  0.00    +0.150 HD
BRANCH   9  18
ATOM     18  C   UNL     1       4.033  -0.888   0.536  0.00  0.00    +0.163 C 
BRANCH  18  23
ATOM      7  O   UNL     1       4.580   0.175   2.651  0.00  0.00    -0.274 OA
ATOM     10  N   UNL     1       6.283  -0.735   1.407  0.00  0.00    -0.328 N 
ATOM     23  C   UNL     1       4.963  -0.406   1.639  0.00  0.00    +0.231 C 
ATOM     38  H   UNL     1       7.006  -0.484   2.073  0.00  0.00    +0.145 HD
ATOM     39  H   UNL     1       6.582  -1.235   0.577  0.00  0.00    +0.145 HD
ENDBRANCH  18  23
BRANCH  18  20
ATOM     20  C   UNL     1       3.517  -2.297   0.851  0.00  0.00    +0.067 C 
BRANCH  20  22
ATOM     22  C   UNL     1       2.565  -2.818  -0.198  0.00  0.00    -0.045 A 
ATOM     24  C   UNL     1       1.196  -2.583  -0.075  0.00  0.00    +0.004 A 
ATOM     25  C   UNL     1       3.054  -3.535  -1.290  0.00  0.00    +0.004 A 
ATOM     28  C   UNL     1       0.315  -3.064  -1.044  0.00  0.00    +0.000 A 
ATOM     29  C   UNL     1       2.174  -4.016  -2.259  0.00  0.00    +0.000 A 
ATOM     32  C   UNL     1       0.804  -3.781  -2.136  0.00  0.00    +0.000 A 
ENDBRANCH  20  22
ENDBRANCH  18  20
ENDBRANCH   9  18
ENDBRANCH  15  17
BRANCH  12   8
ATOM      6  O   UNL     1      -3.348   2.183  -1.607  0.00  0.00    -0.270 OA
ATOM      8  N   UNL     1      -1.673   1.313  -0.260  0.00  0.00    -0.302 N 
ATOM     19  C   UNL     1      -2.963   1.377  -0.765  0.00  0.00    +0.245 C 
ATOM     34  H   UNL     1      -1.455   0.684   0.506  0.00  0.00    +0.150 HD
BRANCH  19  21
ATOM      1 CL   UNL     1      -3.817  -3.241   1.450  0.00  0.00    -0.081 Cl
ATOM      2  F   UNL     1      -6.630  -2.311   1.356  0.00  0.00    -0.204 F 
ATOM     21  C   UNL     1      -3.930   0.398  -0.204  0.00  0.00    +0.038 A 
ATOM     26  C   UNL     1      -3.476  -0.821   0.300  0.00  0.00    +0.036 A 
ATOM     27  C   UNL     1      -5.292   0.698  -0.181  0.00  0.00    +0.016 A 
ATOM     30  C   UNL     1      -4.383  -1.739   0.829  0.00  0.00    +0.077 A 
ATOM     31  C   UNL     1      -6.199  -0.220   0.347  0.00  0.00    +0.040 A 
ATOM     33  C   UNL     1      -5.745  -1.439   0.852  0.00  0.00    +0.142 A 
ENDBRANCH  19  21
ENDBRANCH  12   8
BRANCH  11   3
ATOM      3  O   UNL     1      -0.668   3.143   1.555  0.00  0.00    -0.387 OA
ATOM     35  H   UNL     1      -0.674   3.971   2.065  0.00  0.00    +0.210 HD
ENDBRANCH  11   3
BRANCH  13   4
ATOM      4  O   UNL     1       0.704   4.816  -1.395  0.00  0.00    -0.389 OA
ATOM     36  H   UNL     1       1.508   5.354  -1.491  0.00  0.00    +0.210 HD
ENDBRANCH  13   4
TORSDOF 9
