REMARK  Name = 75536532
REMARK  7 active torsions:
REMARK  status: ('A' for Active; 'I' for Inactive)
REMARK    1  A    between atoms: O_2  and  C_8
REMARK    2  A    between atoms: N_4  and  C_7
REMARK    3  A    between atoms: N_4  and  C_15
REMARK    4  A    between atoms: N_4  and  C_16
REMARK    5  A    between atoms: N_5  and  C_13
REMARK    6  A    between atoms: C_6  and  C_14
REMARK    7  A    between atoms: C_9  and  C_13
REMARK                            x       y       z     vdW  Elec       q    Type
REMARK                         _______ _______ _______ _____ _____    ______ ____
ROOT
ATOM      1  O   UNL     1      -0.138  -0.784   1.488  0.00  0.00    -0.371 OA
ATOM      7  C   UNL     1      -2.123  -0.009   0.439  0.00  0.00    +0.113 C 
ATOM      8  C   UNL     1      -1.322  -0.826  -0.559  0.00  0.00    +0.164 C 
ATOM      9  C   UNL     1      -0.437  -1.642   0.374  0.00  0.00    +0.165 C 
ATOM     12  C   UNL     1      -1.063   0.317   1.479  0.00  0.00    +0.181 C 
ENDROOT
BRANCH   7   4
ATOM      4  N   UNL     1      -2.734   1.178  -0.137  0.00  0.00    -0.301 NA
ATOM     15  C   UNL     1      -3.386   1.983   0.900  0.00  0.00    +0.105 C 
ATOM     16  C   UNL     1      -3.703   0.814  -1.174  0.00  0.00    +0.105 C 
ENDBRANCH   7   4
BRANCH   8   2
ATOM      2  O   UNL     1      -2.138  -1.651  -1.367  0.00  0.00    -0.388 OA
ATOM     18  H   UNL     1      -2.672  -2.218  -0.785  0.00  0.00    +0.210 HD
ENDBRANCH   8   2
BRANCH   9  13
ATOM     13  C   UNL     1       0.853  -2.106  -0.278  0.00  0.00    +0.138 C 
BRANCH  13   5
ATOM      3  O   UNL     1       2.886  -0.661   1.217  0.00  0.00    -0.276 OA
ATOM      5  N   UNL     1       1.642  -0.995  -0.724  0.00  0.00    -0.313 N 
ATOM     14  C   UNL     1       2.595  -0.365   0.065  0.00  0.00    +0.216 C 
ATOM     17  H   UNL     1       1.500  -0.667  -1.675  0.00  0.00    +0.149 HD
BRANCH  14   6
ATOM      6  C   UNL     1       3.298   0.768  -0.605  0.00  0.00    +0.075 C 
ATOM     10  C   UNL     1       3.290   2.104   0.061  0.00  0.00    +0.013 C 
ATOM     11  C   UNL     1       2.479   1.876  -1.179  0.00  0.00    +0.013 C 
ENDBRANCH  14   6
ENDBRANCH  13   5
ENDBRANCH   9  13
TORSDOF 5
