REMARK  Name = 28962402
REMARK  8 active torsions:
REMARK  status: ('A' for Active; 'I' for Inactive)
REMARK    1  A    between atoms: O_2  and  C_8
REMARK    2  A    between atoms: O_3  and  C_17
REMARK    3  A    between atoms: N_4  and  C_6
REMARK    4  A    between atoms: N_5  and  C_12
REMARK    5  A    between atoms: N_5  and  C_16
REMARK    6  A    between atoms: C_7  and  C_12
REMARK    7  A    between atoms: C_9  and  C_17
REMARK    8  A    between atoms: C_13  and  C_22
REMARK                            x       y       z     vdW  Elec       q    Type
REMARK                         _______ _______ _______ _____ _____    ______ ____
ROOT
ATOM      1  O   UNL     1      -0.410   2.216  -0.903  0.00  0.00    -0.366 OA
ATOM      6  C   UNL     1       1.620   1.000  -0.644  0.00  0.00    +0.118 C 
ATOM      7  C   UNL     1       0.164   0.908  -1.120  0.00  0.00    +0.152 C 
ATOM      8  C   UNL     1       1.574   2.120   0.384  0.00  0.00    +0.165 C 
ATOM      9  C   UNL     1       0.570   3.061  -0.271  0.00  0.00    +0.174 C 
ENDROOT
BRANCH   6   4
ATOM      4  N   UNL     1       2.225  -0.238  -0.185  0.00  0.00    -0.295 NA
ATOM     10  C   UNL     1       3.394   0.043   0.658  0.00  0.00    +0.085 C 
ATOM     11  C   UNL     1       2.587  -1.088  -1.328  0.00  0.00    +0.085 C 
ATOM     13  C   UNL     1       4.388  -2.202   0.054  0.00  0.00    -0.012 C 
ATOM     14  C   UNL     1       4.012  -1.250   1.194  0.00  0.00    +0.018 C 
ATOM     15  C   UNL     1       3.177  -2.420  -0.860  0.00  0.00    +0.018 C 
ATOM     22  C   UNL     1       4.910  -3.529   0.597  0.00  0.00    +0.007 C 
ENDBRANCH   6   4
BRANCH   8   2
ATOM      2  O   UNL     1       1.079   1.659   1.634  0.00  0.00    -0.388 OA
ATOM     25  H   UNL     1       1.172   2.385   2.273  0.00  0.00    +0.210 HD
ENDBRANCH   8   2
BRANCH   7  12
ATOM     12  C   UNL     1      -0.726  -0.102  -0.404  0.00  0.00    +0.114 C 
BRANCH  12   5
ATOM      5  N   UNL     1      -2.068  -0.104  -0.967  0.00  0.00    -0.311 NA
ATOM     24  H   UNL     1      -2.006  -0.323  -1.962  0.00  0.00    +0.122 HD
BRANCH   5  16
ATOM     16  C   UNL     1      -2.915  -1.090  -0.298  0.00  0.00    +0.054 C 
ATOM     18  C   UNL     1      -3.413  -0.528   1.038  0.00  0.00    +0.019 C 
ATOM     19  C   UNL     1      -4.087  -1.473  -1.208  0.00  0.00    +0.019 C 
ATOM     20  C   UNL     1      -4.364  -1.501   1.731  0.00  0.00    +0.002 C 
ATOM     21  C   UNL     1      -5.037  -2.446  -0.512  0.00  0.00    +0.002 C 
ATOM     23  C   UNL     1      -5.527  -1.895   0.824  0.00  0.00    +0.000 C 
ENDBRANCH   5  16
ENDBRANCH  12   5
ENDBRANCH   7  12
BRANCH   9  17
ATOM     17  C   UNL     1      -0.133   4.024   0.670  0.00  0.00    +0.190 C 
BRANCH  17   3
ATOM      3  O   UNL     1      -1.021   4.834  -0.082  0.00  0.00    -0.392 OA
ATOM     26  H   UNL     1      -1.453   5.442   0.542  0.00  0.00    +0.210 HD
ENDBRANCH  17   3
ENDBRANCH   9  17
TORSDOF 7
