REMARK  Name = 7134278
REMARK  13 active torsions:
REMARK  status: ('A' for Active; 'I' for Inactive)
REMARK    1  A    between atoms: S_1  and  N_13
REMARK    2  A    between atoms: S_1  and  C_25
REMARK    3  A    between atoms: O_8  and  C_24
REMARK    4  A    between atoms: O_8  and  C_31
REMARK    5  A    between atoms: O_10  and  C_36
REMARK    6  A    between atoms: N_13  and  C_16
REMARK    7  A    between atoms: N_14  and  C_23
REMARK    8  A    between atoms: C_18  and  C_21
REMARK    9  A    between atoms: C_22  and  C_24
REMARK   10  A    between atoms: C_23  and  C_26
REMARK   11  A    between atoms: C_23  and  C_27
REMARK   12  A    between atoms: C_26  and  C_29
REMARK   13  A    between atoms: C_31  and  C_36
REMARK                            x       y       z     vdW  Elec       q    Type
REMARK                         _______ _______ _______ _____ _____    ______ ____
ROOT
ATOM      5  O   UNL     1      -2.220   3.200   1.352  0.00  0.00    -0.273 OA
ATOM     12  N   UNL     1      -0.522   1.956   0.356  0.00  0.00    -0.288 N 
ATOM     16  C   UNL     1       2.286   1.744  -0.390  0.00  0.00    +0.080 C 
ATOM     17  C   UNL     1       1.199   1.107  -1.256  0.00  0.00    +0.052 C 
ATOM     18  C   UNL     1      -0.095   0.827  -0.488  0.00  0.00    +0.163 C 
ATOM     19  C   UNL     1       1.742   2.969   0.338  0.00  0.00    +0.039 C 
ATOM     20  C   UNL     1       0.518   2.602   1.167  0.00  0.00    +0.110 C 
ATOM     22  C   UNL     1      -1.855   2.342   0.543  0.00  0.00    +0.242 C 
ENDROOT
BRANCH  18  21
ATOM      4  O   UNL     1       0.368  -0.260   1.588  0.00  0.00    -0.274 OA
ATOM     14  N   UNL     1      -0.254  -1.552  -0.246  0.00  0.00    -0.302 N 
ATOM     21  C   UNL     1       0.030  -0.367   0.412  0.00  0.00    +0.234 C 
ATOM     38  H   UNL     1      -0.445  -1.527  -1.244  0.00  0.00    +0.150 HD
BRANCH  14  23
ATOM     23  C   UNL     1      -0.185  -2.847   0.392  0.00  0.00    +0.163 C 
BRANCH  23  27
ATOM      9  O   UNL     1       1.973  -3.097  -0.698  0.00  0.00    -0.274 OA
ATOM     15  N   UNL     1       1.685  -4.006   1.392  0.00  0.00    -0.328 N 
ATOM     27  C   UNL     1       1.254  -3.327   0.272  0.00  0.00    +0.231 C 
ATOM     39  H   UNL     1       2.632  -4.366   1.449  0.00  0.00    +0.145 HD
ATOM     40  H   UNL     1       1.082  -4.186   2.188  0.00  0.00    +0.145 HD
ENDBRANCH  23  27
BRANCH  23  26
ATOM     26  C   UNL     1      -1.142  -3.861  -0.246  0.00  0.00    +0.074 C 
BRANCH  26  29
ATOM      3  S   UNL     1      -3.659  -3.837  -1.439  0.00  0.00    -0.102 S 
ATOM     29  C   UNL     1      -2.583  -3.413  -0.177  0.00  0.00    -0.008 A 
ATOM     33  C   UNL     1      -3.203  -2.671   0.804  0.00  0.00    +0.011 A 
ATOM     34  C   UNL     1      -4.580  -2.447   0.515  0.00  0.00    +0.008 A 
ATOM     35  C   UNL     1      -4.960  -3.027  -0.676  0.00  0.00    +0.045 A 
ENDBRANCH  26  29
ENDBRANCH  23  26
ENDBRANCH  14  23
ENDBRANCH  18  21
BRANCH  16  13
ATOM     13  N   UNL     1       3.425   2.146  -1.251  0.00  0.00    -0.186 NA
ATOM     37  H   UNL     1       3.213   2.899  -1.918  0.00  0.00    +0.148 HD
BRANCH  13   1
ATOM      1  S   UNL     1       4.991   2.125  -0.564  0.00  0.00    +0.065 S 
ATOM      6  O   UNL     1       4.995   2.917   0.651  0.00  0.00    -0.153 OA
ATOM      7  O   UNL     1       5.965   2.351  -1.613  0.00  0.00    -0.153 OA
BRANCH   1  25
ATOM      2  S   UNL     1       5.540  -0.677  -1.316  0.00  0.00    -0.077 S 
ATOM     25  C   UNL     1       5.317   0.443  -0.039  0.00  0.00    +0.142 A 
ATOM     28  C   UNL     1       5.429  -0.154   1.197  0.00  0.00    +0.036 A 
ATOM     30  C   UNL     1       5.702  -1.549   1.095  0.00  0.00    +0.010 A 
ATOM     32  C   UNL     1       5.787  -1.965  -0.215  0.00  0.00    +0.047 A 
ENDBRANCH   1  25
ENDBRANCH  13   1
ENDBRANCH  16  13
BRANCH  22  24
ATOM     24  C   UNL     1      -2.888   1.660  -0.319  0.00  0.00    +0.256 C 
BRANCH  24   8
ATOM      8  O   UNL     1      -4.138   2.178   0.067  0.00  0.00    -0.359 OA
BRANCH   8  31
ATOM     31  C   UNL     1      -5.209   1.606  -0.682  0.00  0.00    +0.280 C 
BRANCH  31  36
ATOM     11  O   UNL     1      -6.660   3.017   0.662  0.00  0.00    -0.248 OA
ATOM     36  C   UNL     1      -6.517   2.194  -0.229  0.00  0.00    +0.331 C 
BRANCH  36  10
ATOM     10  O   UNL     1      -7.539   1.678  -0.958  0.00  0.00    -0.479 OA
ATOM     41  H   UNL     1      -8.406   2.046  -0.682  0.00  0.00    +0.295 HD
ENDBRANCH  36  10
ENDBRANCH  31  36
ENDBRANCH   8  31
ENDBRANCH  24   8
ENDBRANCH  22  24
TORSDOF 13
