REMARK  Name = 11883067
REMARK  11 active torsions:
REMARK  status: ('A' for Active; 'I' for Inactive)
REMARK    1  A    between atoms: O_2  and  C_15
REMARK    2  A    between atoms: O_3  and  C_20
REMARK    3  A    between atoms: N_8  and  C_26
REMARK    4  A    between atoms: N_8  and  C_27
REMARK    5  A    between atoms: C_10  and  C_18
REMARK    6  A    between atoms: C_12  and  C_20
REMARK    7  A    between atoms: C_12  and  C_21
REMARK    8  A    between atoms: C_13  and  C_23
REMARK    9  A    between atoms: C_23  and  C_24
REMARK   10  A    between atoms: C_26  and  C_29
REMARK   11  A    between atoms: C_28  and  C_30
REMARK                            x       y       z     vdW  Elec       q    Type
REMARK                         _______ _______ _______ _____ _____    ______ ____
ROOT
ATOM      1  S   UNL     1       0.146   3.727  -0.265  0.00  0.00    -0.057 S 
ATOM      5  O   UNL     1       3.835   0.961   0.063  0.00  0.00    -0.266 OA
ATOM      7  N   UNL     1       0.936   1.280   0.023  0.00  0.00    -0.229 NA
ATOM      9  N   UNL     1       2.652   2.962  -0.170  0.00  0.00    -0.258 N 
ATOM     10  C   UNL     1      -2.754   0.287   0.538  0.00  0.00    -0.019 C 
ATOM     11  C   UNL     1      -3.282   1.451  -0.412  0.00  0.00    +0.011 C 
ATOM     12  C   UNL     1      -4.845   1.639  -0.514  0.00  0.00    +0.021 C 
ATOM     13  C   UNL     1      -1.230  -0.006   0.158  0.00  0.00    +0.054 C 
ATOM     14  C   UNL     1      -3.578  -1.001   0.281  0.00  0.00    +0.010 C 
ATOM     15  C   UNL     1      -5.515   0.251  -0.724  0.00  0.00    +0.123 C 
ATOM     16  C   UNL     1      -2.506   2.778  -0.171  0.00  0.00    +0.049 C 
ATOM     17  C   UNL     1      -5.085  -0.786   0.308  0.00  0.00    +0.032 C 
ATOM     18  C   UNL     1      -2.851   0.648   2.041  0.00  0.00    +0.012 C 
ATOM     19  C   UNL     1      -0.447   1.276   0.032  0.00  0.00    +0.058 A 
ATOM     21  C   UNL     1      -5.171   2.503  -1.765  0.00  0.00    +0.016 C 
ATOM     22  C   UNL     1      -1.039   2.511  -0.134  0.00  0.00    +0.015 A 
ATOM     25  C   UNL     1       1.357   2.518  -0.120  0.00  0.00    +0.165 A 
ATOM     28  C   UNL     1       3.827   2.181  -0.078  0.00  0.00    +0.285 C 
ATOM     41  H   UNL     1       2.758   3.967  -0.280  0.00  0.00    +0.157 HD
ENDROOT
BRANCH  28  30
ATOM      6  O   UNL     1       5.009   4.296  -0.235  0.00  0.00    -0.458 OA
ATOM     30  C   UNL     1       5.087   2.944  -0.117  0.00  0.00    +0.189 A 
ATOM     33  C   UNL     1       6.401   2.540  -0.055  0.00  0.00    +0.054 A 
ATOM     37  C   UNL     1       7.179   3.719  -0.140  0.00  0.00    +0.042 A 
ATOM     38  C   UNL     1       6.286   4.759  -0.248  0.00  0.00    +0.196 A 
ENDBRANCH  28  30
BRANCH  15   2
ATOM      2  O   UNL     1      -6.937   0.369  -0.691  0.00  0.00    -0.391 OA
ATOM     39  H   UNL     1      -7.310  -0.510  -0.872  0.00  0.00    +0.210 HD
ENDBRANCH  15   2
BRANCH  12  20
ATOM     20  C   UNL     1      -5.480   2.382   0.681  0.00  0.00    +0.165 C 
BRANCH  20   3
ATOM      3  O   UNL     1      -6.866   2.481   0.441  0.00  0.00    -0.394 OA
ATOM     40  H   UNL     1      -7.257   2.958   1.193  0.00  0.00    +0.209 HD
ENDBRANCH  20   3
ENDBRANCH  12  20
BRANCH  13  23
ATOM     23  C   UNL     1      -0.524  -1.007   1.083  0.00  0.00    +0.106 C 
BRANCH  23  24
ATOM      4  O   UNL     1       0.884  -1.492  -0.796  0.00  0.00    -0.276 OA
ATOM      8  N   UNL     1       1.303  -2.666   1.159  0.00  0.00    -0.300 N 
ATOM     24  C   UNL     1       0.610  -1.731   0.383  0.00  0.00    +0.216 C 
ATOM     27  C   UNL     1       0.962  -2.932   2.551  0.00  0.00    +0.132 C 
BRANCH   8  26
ATOM     26  C   UNL     1       2.422  -3.445   0.634  0.00  0.00    +0.142 C 
BRANCH  26  29
ATOM     29  C   UNL     1       1.963  -4.718  -0.018  0.00  0.00    -0.030 A 
ATOM     31  C   UNL     1       1.844  -5.885   0.737  0.00  0.00    +0.005 A 
ATOM     32  C   UNL     1       1.654  -4.732  -1.378  0.00  0.00    +0.005 A 
ATOM     34  C   UNL     1       1.417  -7.066   0.131  0.00  0.00    +0.000 A 
ATOM     35  C   UNL     1       1.227  -5.914  -1.984  0.00  0.00    +0.000 A 
ATOM     36  C   UNL     1       1.109  -7.081  -1.229  0.00  0.00    +0.000 A 
ENDBRANCH  26  29
ENDBRANCH   8  26
ENDBRANCH  23  24
ENDBRANCH  13  23
TORSDOF 8
