REMARK  Name = 11867521
REMARK  8 active torsions:
REMARK  status: ('A' for Active; 'I' for Inactive)
REMARK    1  A    between atoms: N_7  and  C_16
REMARK    2  A    between atoms: N_8  and  C_17
REMARK    3  A    between atoms: N_12  and  C_25
REMARK    4  A    between atoms: N_13  and  C_28
REMARK    5  A    between atoms: N_13  and  C_34
REMARK    6  A    between atoms: N_13  and  C_35
REMARK    7  A    between atoms: C_20  and  C_22
REMARK    8  A    between atoms: C_31  and  C_36
REMARK                            x       y       z     vdW  Elec       q    Type
REMARK                         _______ _______ _______ _____ _____    ______ ____
ROOT
ATOM      4  O   UNL     1       1.046   3.413   0.845  0.00  0.00    -0.370 OA
ATOM      5  O   UNL     1       1.526   0.497   1.922  0.00  0.00    -0.370 OA
ATOM     14  C   UNL     1       1.496   1.084   0.608  0.00  0.00    +0.176 C 
ATOM     15  C   UNL     1       0.413   2.145   0.615  0.00  0.00    +0.171 C 
ATOM     16  C   UNL     1       2.782   1.848   0.355  0.00  0.00    +0.168 C 
ATOM     17  C   UNL     1      -0.464   1.776   1.791  0.00  0.00    +0.131 C 
ATOM     18  C   UNL     1       2.468   3.237   0.901  0.00  0.00    +0.190 C 
ATOM     19  C   UNL     1       0.524   1.121   2.738  0.00  0.00    +0.185 C 
ENDROOT
BRANCH  17   8
ATOM      6  O   UNL     1      -3.145   2.439   1.030  0.00  0.00    -0.252 OA
ATOM      8  N   UNL     1      -1.502   0.854   1.400  0.00  0.00    -0.292 N 
ATOM     12  N   UNL     1      -3.579   0.154   0.711  0.00  0.00    -0.269 N 
ATOM     21  C   UNL     1      -2.793   1.262   1.040  0.00  0.00    +0.304 C 
ATOM     37  H   UNL     1      -1.268  -0.131   1.318  0.00  0.00    +0.151 HD
ATOM     38  H   UNL     1      -3.131  -0.757   0.774  0.00  0.00    +0.156 HD
BRANCH  12  25
ATOM     25  C   UNL     1      -4.931   0.141   0.298  0.00  0.00    +0.035 A 
ATOM     29  C   UNL     1      -5.543  -1.069   0.014  0.00  0.00    +0.035 A 
ATOM     30  C   UNL     1      -5.617   1.339   0.186  0.00  0.00    +0.023 A 
ATOM     31  C   UNL     1      -6.877  -1.081  -0.394  0.00  0.00    +0.057 A 
ATOM     32  C   UNL     1      -6.951   1.327  -0.221  0.00  0.00    +0.002 A 
ATOM     33  C   UNL     1      -7.581   0.117  -0.511  0.00  0.00    +0.012 A 
BRANCH  31  36
ATOM      1  F   UNL     1      -6.954  -3.074  -1.714  0.00  0.00    -0.166 F 
ATOM      2  F   UNL     1      -8.854  -2.235  -1.088  0.00  0.00    -0.166 F 
ATOM      3  F   UNL     1      -7.574  -3.224   0.365  0.00  0.00    -0.166 F 
ATOM     36  C   UNL     1      -7.551  -2.375  -0.703  0.00  0.00    +0.417 C 
ENDBRANCH  31  36
ENDBRANCH  12  25
ENDBRANCH  17   8
BRANCH  16   7
ATOM      7  N   UNL     1       3.190   1.812  -1.051  0.00  0.00    -0.217 N 
ATOM      9  N   UNL     1       2.737   2.728  -1.913  0.00  0.00    -0.043 NA
ATOM     10  N   UNL     1       4.092   1.290  -2.946  0.00  0.00    -0.108 NA
ATOM     11  N   UNL     1       3.293   2.404  -3.074  0.00  0.00    -0.023 NA
ATOM     20  C   UNL     1       4.012   0.941  -1.682  0.00  0.00    +0.182 A 
BRANCH  20  22
ATOM     22  C   UNL     1       4.673  -0.171  -1.048  0.00  0.00    +0.021 A 
ATOM     23  C   UNL     1       5.939  -0.004  -0.484  0.00  0.00    +0.013 A 
ATOM     24  C   UNL     1       4.047  -1.418  -0.995  0.00  0.00    +0.013 A 
ATOM     26  C   UNL     1       6.578  -1.081   0.130  0.00  0.00    +0.024 A 
ATOM     27  C   UNL     1       4.686  -2.495  -0.380  0.00  0.00    +0.024 A 
ATOM     28  C   UNL     1       5.952  -2.326   0.182  0.00  0.00    +0.029 A 
BRANCH  28  13
ATOM     13  N   UNL     1       6.598  -3.415   0.804  0.00  0.00    -0.336 N 
ATOM     34  C   UNL     1       7.912  -3.251   1.391  0.00  0.00    +0.129 C 
ATOM     35  C   UNL     1       5.949  -4.709   0.876  0.00  0.00    +0.129 C 
ENDBRANCH  28  13
ENDBRANCH  20  22
ENDBRANCH  16   7
TORSDOF 6
