REMARK  Name = 75536896
REMARK  5 active torsions:
REMARK  status: ('A' for Active; 'I' for Inactive)
REMARK    1  A    between atoms: O_2  and  C_8
REMARK    2  A    between atoms: O_2  and  C_15
REMARK    3  A    between atoms: O_4  and  C_20
REMARK    4  A    between atoms: O_4  and  C_24
REMARK    5  A    between atoms: C_13  and  C_14
REMARK                            x       y       z     vdW  Elec       q    Type
REMARK                         _______ _______ _______ _____ _____    ______ ____
ROOT
ATOM      1  O   UNL     1      -2.034  -2.676  -1.139  0.00  0.00    -0.375 OA
ATOM      3  O   UNL     1       2.521  -3.013   0.423  0.00  0.00    -0.270 OA
ATOM      5  N   UNL     1       0.512  -1.806   0.467  0.00  0.00    -0.292 N 
ATOM      8  C   UNL     1      -1.626  -0.520  -0.072  0.00  0.00    +0.218 C 
ATOM      9  C   UNL     1      -0.171  -0.509   0.406  0.00  0.00    +0.155 C 
ATOM     10  C   UNL     1      -0.303  -3.018   0.558  0.00  0.00    +0.136 C 
ATOM     11  C   UNL     1      -1.824  -1.288  -1.377  0.00  0.00    +0.206 C 
ATOM     12  C   UNL     1      -0.860  -3.408  -0.805  0.00  0.00    +0.179 C 
ATOM     13  C   UNL     1       1.909  -1.946   0.406  0.00  0.00    +0.247 C 
ENDROOT
BRANCH  13  14
ATOM     14  C   UNL     1       2.729  -0.728   0.316  0.00  0.00    +0.037 A 
ATOM     16  C   UNL     1       3.175  -0.099   1.479  0.00  0.00    +0.016 A 
ATOM     17  C   UNL     1       3.059  -0.200  -0.932  0.00  0.00    +0.016 A 
ATOM     18  C   UNL     1       3.951   1.056   1.393  0.00  0.00    +0.046 A 
ATOM     19  C   UNL     1       3.835   0.956  -1.018  0.00  0.00    +0.046 A 
ATOM     20  C   UNL     1       4.281   1.584   0.145  0.00  0.00    +0.120 A 
BRANCH  20   4
ATOM      4  O   UNL     1       5.039   2.712   0.062  0.00  0.00    -0.495 OA
ATOM     24  C   UNL     1       5.339   3.197  -1.246  0.00  0.00    +0.277 C 
ENDBRANCH  20   4
ENDBRANCH  13  14
BRANCH   8   2
ATOM      2  O   UNL     1      -2.004   0.843  -0.271  0.00  0.00    -0.468 OA
BRANCH   2  15
ATOM      6  N   UNL     1      -4.132   0.162   0.372  0.00  0.00    -0.219 NA
ATOM      7  N   UNL     1      -5.044   2.792   0.029  0.00  0.00    -0.256 NA
ATOM     15  C   UNL     1      -3.313   1.155  -0.030  0.00  0.00    +0.234 A 
ATOM     21  C   UNL     1      -3.761   2.447  -0.198  0.00  0.00    +0.177 A 
ATOM     22  C   UNL     1      -5.415   0.508   0.599  0.00  0.00    +0.134 A 
ATOM     23  C   UNL     1      -5.863   1.800   0.431  0.00  0.00    +0.130 A 
ENDBRANCH   2  15
ENDBRANCH   8   2
TORSDOF 4
