REMARK  Name = 26743984
REMARK  4 active torsions:
REMARK  status: ('A' for Active; 'I' for Inactive)
REMARK    1  A    between atoms: O_2  and  C_12
REMARK    2  A    between atoms: N_4  and  C_8
REMARK    3  A    between atoms: C_9  and  C_15
REMARK    4  A    between atoms: C_18  and  C_19
REMARK                            x       y       z     vdW  Elec       q    Type
REMARK                         _______ _______ _______ _____ _____    ______ ____
ROOT
ATOM      4  N   UNL     1      -2.239  -0.397  -0.340  0.00  0.00    -0.286 NA
ATOM      9  C   UNL     1      -1.591  -1.250   0.677  0.00  0.00    +0.149 C 
ATOM     10  C   UNL     1      -3.382  -1.152  -0.847  0.00  0.00    +0.116 C 
ATOM     11  C   UNL     1      -1.925  -2.692   0.250  0.00  0.00    +0.061 C 
ATOM     12  C   UNL     1      -2.799  -2.545  -0.988  0.00  0.00    +0.130 C 
ENDROOT
BRANCH   4   8
ATOM      1  O   UNL     1      -2.408   3.782   0.033  0.00  0.00    -0.380 OA
ATOM      8  C   UNL     1      -2.629   0.915   0.172  0.00  0.00    +0.062 C 
ATOM     13  C   UNL     1      -1.402   1.670   0.693  0.00  0.00    +0.047 C 
ATOM     14  C   UNL     1      -3.334   1.741  -0.907  0.00  0.00    +0.047 C 
ATOM     16  C   UNL     1      -1.789   3.084   1.113  0.00  0.00    +0.161 C 
ATOM     17  C   UNL     1      -3.614   3.151  -0.398  0.00  0.00    +0.161 C 
ENDBRANCH   4   8
BRANCH   9  15
ATOM      3  O   UNL     1       0.469  -1.259   1.990  0.00  0.00    -0.336 OA
ATOM      5  N   UNL     1       0.735  -0.565  -0.122  0.00  0.00    -0.190 NA
ATOM      6  N   UNL     1       1.830  -0.957   1.848  0.00  0.00    -0.056 NA
ATOM     15  C   UNL     1      -0.102  -1.001   0.785  0.00  0.00    +0.245 A 
ATOM     18  C   UNL     1       1.907  -0.555   0.576  0.00  0.00    +0.204 A 
BRANCH  18  19
ATOM      7  N   UNL     1       5.517   0.248   0.186  0.00  0.00    -0.263 NA
ATOM     19  C   UNL     1       3.140  -0.138  -0.028  0.00  0.00    +0.041 A 
ATOM     20  C   UNL     1       3.185   0.274  -1.355  0.00  0.00    +0.014 A 
ATOM     21  C   UNL     1       4.323  -0.133   0.694  0.00  0.00    +0.122 A 
ATOM     22  C   UNL     1       4.395   0.673  -1.913  0.00  0.00    +0.020 A 
ATOM     23  C   UNL     1       5.522   0.642  -1.107  0.00  0.00    +0.111 A 
ENDBRANCH  18  19
ENDBRANCH   9  15
BRANCH  12   2
ATOM      2  O   UNL     1      -3.808  -3.536  -1.012  0.00  0.00    -0.390 OA
ATOM     24  H   UNL     1      -3.365  -4.402  -1.025  0.00  0.00    +0.210 HD
ENDBRANCH  12   2
TORSDOF 4
