REMARK  Name = 44716363
REMARK  9 active torsions:
REMARK  status: ('A' for Active; 'I' for Inactive)
REMARK    1  A    between atoms: O_1  and  C_16
REMARK    2  A    between atoms: O_1  and  C_21
REMARK    3  A    between atoms: N_5  and  C_19
REMARK    4  A    between atoms: N_7  and  C_27
REMARK    5  A    between atoms: C_9  and  C_15
REMARK    6  A    between atoms: C_10  and  C_16
REMARK    7  A    between atoms: C_18  and  C_20
REMARK    8  A    between atoms: C_36  and  C_37
REMARK    9  A    between atoms: C_37  and  C_38
REMARK                            x       y       z     vdW  Elec       q    Type
REMARK                         _______ _______ _______ _____ _____    ______ ____
ROOT
ATOM      4  N   UNL     1      -0.552   4.609   1.288  0.00  0.00    -0.296 NA
ATOM      8  C   UNL     1      -1.583   4.170  -1.063  0.00  0.00    +0.002 C 
ATOM      9  C   UNL     1      -2.505   3.599   0.050  0.00  0.00    +0.055 C 
ATOM     10  C   UNL     1       0.466   3.999   0.393  0.00  0.00    +0.095 C 
ATOM     11  C   UNL     1      -0.178   3.543  -0.934  0.00  0.00    +0.026 C 
ATOM     12  C   UNL     1      -1.432   5.681  -0.784  0.00  0.00    +0.019 C 
ATOM     13  C   UNL     1      -1.734   3.717   1.396  0.00  0.00    +0.094 C 
ATOM     14  C   UNL     1      -0.991   5.886   0.675  0.00  0.00    +0.085 C 
ENDROOT
BRANCH   9  15
ATOM      5  N   UNL     1      -4.299   2.006  -0.775  0.00  0.00    -0.270 N 
ATOM      6  N   UNL     1      -4.652   0.712  -0.854  0.00  0.00    -0.171 NA
ATOM     15  C   UNL     1      -3.103   2.215  -0.153  0.00  0.00    +0.044 A 
ATOM     17  C   UNL     1      -2.642   0.971   0.200  0.00  0.00    +0.053 A 
ATOM     18  C   UNL     1      -3.635   0.084  -0.256  0.00  0.00    +0.093 A 
ATOM     19  C   UNL     1      -5.177   3.011  -1.328  0.00  0.00    +0.172 C 
BRANCH  18  20
ATOM     20  C   UNL     1      -3.633  -1.350  -0.130  0.00  0.00    +0.003 A 
ATOM     22  C   UNL     1      -4.840  -2.043  -0.031  0.00  0.00    +0.018 A 
ATOM     23  C   UNL     1      -2.427  -2.045  -0.109  0.00  0.00    +0.011 A 
ATOM     24  C   UNL     1      -4.855  -3.442   0.092  0.00  0.00    -0.017 A 
ATOM     25  C   UNL     1      -2.423  -3.434   0.012  0.00  0.00    +0.009 A 
ATOM     26  C   UNL     1      -3.628  -4.148   0.114  0.00  0.00    -0.018 A 
ATOM     28  C   UNL     1      -6.060  -4.156   0.194  0.00  0.00    +0.008 A 
ATOM     29  C   UNL     1      -3.643  -5.547   0.236  0.00  0.00    +0.008 A 
ATOM     32  C   UNL     1      -6.056  -5.546   0.315  0.00  0.00    +0.001 A 
ATOM     33  C   UNL     1      -4.850  -6.240   0.336  0.00  0.00    +0.001 A 
ENDBRANCH  18  20
ENDBRANCH   9  15
BRANCH  10  16
ATOM     16  C   UNL     1       1.236   2.865   1.073  0.00  0.00    +0.252 C 
BRANCH  16   1
ATOM      1  O   UNL     1       2.249   2.422   0.191  0.00  0.00    -0.449 OA
BRANCH   1  21
ATOM      2  O   UNL     1       2.916   0.874   1.736  0.00  0.00    -0.226 OA
ATOM      7  N   UNL     1       3.982   1.086  -0.337  0.00  0.00    -0.251 N 
ATOM     21  C   UNL     1       3.052   1.395   0.636  0.00  0.00    +0.405 C 
ATOM     39  H   UNL     1       3.938   1.634  -1.192  0.00  0.00    +0.158 HD
BRANCH   7  27
ATOM     27  C   UNL     1       4.992   0.098  -0.292  0.00  0.00    +0.036 A 
ATOM     30  C   UNL     1       5.849  -0.073  -1.380  0.00  0.00    +0.024 A 
ATOM     31  C   UNL     1       5.132  -0.706   0.839  0.00  0.00    +0.024 A 
ATOM     34  C   UNL     1       6.845  -1.049  -1.336  0.00  0.00    +0.013 A 
ATOM     35  C   UNL     1       6.128  -1.681   0.882  0.00  0.00    +0.013 A 
ATOM     36  C   UNL     1       6.984  -1.853  -0.205  0.00  0.00    +0.017 A 
BRANCH  36  37
ATOM      3  O   UNL     1       8.553  -3.212   0.914  0.00  0.00    -0.292 OA
ATOM     37  C   UNL     1       8.023  -2.870  -0.161  0.00  0.00    +0.160 C 
ATOM     38  C   UNL     1       8.492  -3.546  -1.445  0.00  0.00    +0.091 C 
ENDBRANCH  36  37
ENDBRANCH   7  27
ENDBRANCH   1  21
ENDBRANCH  16   1
ENDBRANCH  10  16
TORSDOF 7
