REMARK  Name = 11941298
REMARK  4 active torsions:
REMARK  status: ('A' for Active; 'I' for Inactive)
REMARK    1  A    between atoms: N_5  and  C_11
REMARK    2  A    between atoms: N_6  and  C_12
REMARK    3  A    between atoms: C_15  and  C_16
REMARK    4  A    between atoms: C_23  and  C_26
REMARK                            x       y       z     vdW  Elec       q    Type
REMARK                         _______ _______ _______ _____ _____    ______ ____
ROOT
ATOM      2  O   UNL     1      -0.317   0.847   2.102  0.00  0.00    -0.370 OA
ATOM      3  O   UNL     1      -1.382   3.419   0.693  0.00  0.00    -0.370 OA
ATOM      9  C   UNL     1      -1.594   2.015   0.471  0.00  0.00    +0.171 C 
ATOM     10  C   UNL     1      -0.279   1.311   0.742  0.00  0.00    +0.171 C 
ATOM     11  C   UNL     1      -2.534   1.454   1.514  0.00  0.00    +0.130 C 
ATOM     12  C   UNL     1       0.760   2.396   0.588  0.00  0.00    +0.130 C 
ATOM     13  C   UNL     1      -1.597   1.160   2.671  0.00  0.00    +0.185 C 
ATOM     14  C   UNL     1       0.002   3.644   1.002  0.00  0.00    +0.185 C 
ENDROOT
BRANCH  12   6
ATOM      6  N   UNL     1       1.170   2.496  -0.796  0.00  0.00    -0.306 N 
ATOM      7  N   UNL     1       2.769   0.795  -0.559  0.00  0.00    -0.214 NA
ATOM      8  N   UNL     1       2.444   1.903  -2.675  0.00  0.00    -0.223 NA
ATOM     22  C   UNL     1       2.157   1.708  -1.360  0.00  0.00    +0.216 A 
ATOM     23  C   UNL     1       3.727   0.044  -1.141  0.00  0.00    +0.076 A 
ATOM     24  C   UNL     1       3.412   1.117  -3.192  0.00  0.00    +0.116 A 
ATOM     25  C   UNL     1       4.094   0.162  -2.466  0.00  0.00    +0.048 A 
ATOM     33  H   UNL     1       0.684   3.135  -1.415  0.00  0.00    +0.149 HD
BRANCH  23  26
ATOM      1  F   UNL     1       3.584  -2.947   2.647  0.00  0.00    -0.205 F 
ATOM     26  C   UNL     1       4.363  -0.918  -0.274  0.00  0.00    +0.003 A 
ATOM     27  C   UNL     1       3.653  -1.480   0.790  0.00  0.00    +0.048 A 
ATOM     28  C   UNL     1       5.691  -1.291  -0.495  0.00  0.00    +0.010 A 
ATOM     29  C   UNL     1       4.268  -2.410   1.628  0.00  0.00    +0.124 A 
ATOM     30  C   UNL     1       6.305  -2.221   0.344  0.00  0.00    +0.003 A 
ATOM     31  C   UNL     1       5.594  -2.780   1.405  0.00  0.00    +0.038 A 
ENDBRANCH  23  26
ENDBRANCH  12   6
BRANCH  11   5
ATOM      4  O   UNL     1      -5.132   1.227   0.236  0.00  0.00    -0.276 OA
ATOM      5  N   UNL     1      -3.178   0.252   1.044  0.00  0.00    -0.307 N 
ATOM     16  C   UNL     1      -4.427   0.243   0.443  0.00  0.00    +0.216 C 
ATOM     32  H   UNL     1      -2.655  -0.618   1.104  0.00  0.00    +0.149 HD
BRANCH  16  15
ATOM     15  C   UNL     1      -4.850  -1.135   0.027  0.00  0.00    +0.075 C 
ATOM     17  C   UNL     1      -6.374  -1.255   0.095  0.00  0.00    +0.013 C 
ATOM     18  C   UNL     1      -4.326  -1.439  -1.379  0.00  0.00    +0.013 C 
ATOM     19  C   UNL     1      -6.856  -2.612  -0.411  0.00  0.00    +0.001 C 
ATOM     20  C   UNL     1      -4.813  -2.796  -1.881  0.00  0.00    +0.001 C 
ATOM     21  C   UNL     1      -6.333  -2.909  -1.813  0.00  0.00    +0.000 C 
ENDBRANCH  16  15
ENDBRANCH  11   5
TORSDOF 4
