REMARK  Name = 11943039
REMARK  4 active torsions:
REMARK  status: ('A' for Active; 'I' for Inactive)
REMARK    1  A    between atoms: N_3  and  C_11
REMARK    2  A    between atoms: C_5  and  C_11
REMARK    3  A    between atoms: C_6  and  C_12
REMARK    4  A    between atoms: C_13  and  C_14
REMARK                            x       y       z     vdW  Elec       q    Type
REMARK                         _______ _______ _______ _____ _____    ______ ____
ROOT
ATOM     11  C   UNL     1       0.442   0.611  -1.244  0.00  0.00    +0.123 C 
ENDROOT
BRANCH  11   5
ATOM      2  N   UNL     1       2.509   1.559  -0.187  0.00  0.00    -0.297 NA
ATOM      4  C   UNL     1       3.016  -0.580   1.203  0.00  0.00    -0.000 C 
ATOM      5  C   UNL     1       1.255   0.791   0.040  0.00  0.00    +0.074 C 
ATOM      6  C   UNL     1       3.946  -0.495  -0.030  0.00  0.00    +0.028 C 
ATOM      7  C   UNL     1       1.550  -0.561   0.726  0.00  0.00    +0.024 C 
ATOM      8  C   UNL     1       3.248   0.695   2.036  0.00  0.00    +0.019 C 
ATOM      9  C   UNL     1       3.510   0.717  -0.887  0.00  0.00    +0.092 C 
ATOM     10  C   UNL     1       3.064   1.929   1.137  0.00  0.00    +0.085 C 
BRANCH   6  12
ATOM     12  C   UNL     1       3.973  -1.764  -0.829  0.00  0.00    -0.030 C 
ATOM     20  C   UNL     1       5.072  -2.497  -1.032  0.00  0.00    +0.004 C 
ENDBRANCH   6  12
ENDBRANCH  11   5
BRANCH  11   3
ATOM      1  O   UNL     1      -2.072   1.904  -0.581  0.00  0.00    -0.276 OA
ATOM      3  N   UNL     1      -0.813  -0.018  -0.969  0.00  0.00    -0.314 N 
ATOM     14  C   UNL     1      -1.976   0.682  -0.658  0.00  0.00    +0.216 C 
ATOM     21  H   UNL     1      -0.844  -1.033  -0.997  0.00  0.00    +0.149 HD
BRANCH  14  13
ATOM     13  C   UNL     1      -3.155  -0.220  -0.440  0.00  0.00    +0.075 C 
ATOM     15  C   UNL     1      -3.234  -0.627   1.033  0.00  0.00    +0.013 C 
ATOM     16  C   UNL     1      -4.437   0.479  -0.897  0.00  0.00    +0.013 C 
ATOM     17  C   UNL     1      -4.474  -1.470   1.319  0.00  0.00    +0.001 C 
ATOM     18  C   UNL     1      -5.675  -0.366  -0.606  0.00  0.00    +0.001 C 
ATOM     19  C   UNL     1      -5.749  -0.768   0.864  0.00  0.00    +0.000 C 
ENDBRANCH  14  13
ENDBRANCH  11   3
TORSDOF 4
