REMARK  Name = 71693193
REMARK  15 active torsions:
REMARK  status: ('A' for Active; 'I' for Inactive)
REMARK    1  A    between atoms: O_1  and  C_34
REMARK    2  A    between atoms: O_1  and  C_36
REMARK    3  A    between atoms: N_4  and  C_15
REMARK    4  A    between atoms: N_4  and  C_21
REMARK    5  A    between atoms: N_7  and  C_33
REMARK    6  A    between atoms: C_8  and  C_12
REMARK    7  A    between atoms: C_9  and  C_15
REMARK    8  A    between atoms: C_11  and  C_16
REMARK    9  A    between atoms: C_12  and  C_17
REMARK   10  A    between atoms: C_12  and  C_18
REMARK   11  A    between atoms: C_13  and  C_19
REMARK   12  A    between atoms: C_16  and  C_20
REMARK   13  A    between atoms: C_21  and  C_24
REMARK   14  A    between atoms: C_29  and  C_34
REMARK   15  A    between atoms: C_35  and  C_37
REMARK                            x       y       z     vdW  Elec       q    Type
REMARK                         _______ _______ _______ _____ _____    ______ ____
ROOT
ATOM      8  C   UNL     1       3.890  -0.981  -0.127  0.00  0.00    +0.000 C 
ATOM      9  C   UNL     1       3.795  -0.276   1.246  0.00  0.00    +0.029 C 
ATOM     10  C   UNL     1       3.086  -0.211  -1.184  0.00  0.00    +0.012 C 
ATOM     11  C   UNL     1       3.525   1.262  -1.332  0.00  0.00    +0.022 C 
ATOM     13  C   UNL     1       3.852   1.923  -0.001  0.00  0.00    -0.073 C 
ATOM     14  C   UNL     1       3.957   1.220   1.141  0.00  0.00    -0.023 C 
ATOM     19  C   UNL     1       4.118   3.403  -0.007  0.00  0.00    +0.039 C 
ENDROOT
BRANCH   8  12
ATOM     12  C   UNL     1       5.350  -1.162  -0.563  0.00  0.00    -0.013 C 
ATOM     17  C   UNL     1       6.008  -2.285   0.233  0.00  0.00    +0.007 C 
ATOM     18  C   UNL     1       5.427  -1.443  -2.060  0.00  0.00    +0.007 C 
ENDBRANCH   8  12
BRANCH   9  15
ATOM     15  C   UNL     1       2.473  -0.591   1.954  0.00  0.00    +0.089 C 
BRANCH  15   4
ATOM      4  N   UNL     1       2.296  -2.026   2.094  0.00  0.00    -0.311 NA
ATOM     38  H   UNL     1       3.066  -2.401   2.648  0.00  0.00    +0.122 HD
BRANCH   4  21
ATOM     21  C   UNL     1       1.035  -2.336   2.758  0.00  0.00    +0.116 C 
BRANCH  21  24
ATOM     24  C   UNL     1      -0.134  -2.244   1.814  0.00  0.00    -0.033 A 
ATOM     27  C   UNL     1      -1.182  -1.365   2.086  0.00  0.00    +0.007 A 
ATOM     28  C   UNL     1      -0.169  -3.037   0.667  0.00  0.00    +0.007 A 
ATOM     31  C   UNL     1      -2.265  -1.279   1.212  0.00  0.00    +0.023 A 
ATOM     32  C   UNL     1      -1.252  -2.952  -0.207  0.00  0.00    +0.023 A 
ATOM     33  C   UNL     1      -2.300  -2.073   0.065  0.00  0.00    +0.033 A 
BRANCH  33   7
ATOM      3  O   UNL     1      -2.860  -3.542  -2.503  0.00  0.00    -0.276 OA
ATOM      7  N   UNL     1      -3.384  -1.988  -0.809  0.00  0.00    -0.286 N 
ATOM     35  C   UNL     1      -3.594  -2.698  -1.999  0.00  0.00    +0.214 C 
ATOM     37  C   UNL     1      -4.896  -2.316  -2.656  0.00  0.00    +0.109 C 
ATOM     40  H   UNL     1      -4.108  -1.324  -0.541  0.00  0.00    +0.155 HD
ENDBRANCH  33   7
ENDBRANCH  21  24
ENDBRANCH   4  21
ENDBRANCH  15   4
ENDBRANCH   9  15
BRANCH  11  16
ATOM     16  C   UNL     1       2.448   2.016  -2.123  0.00  0.00    +0.082 C 
BRANCH  16  20
ATOM      5  N   UNL     1      -0.002   1.584  -1.865  0.00  0.00    -0.342 N 
ATOM      6  N   UNL     1       0.982   2.634  -0.171  0.00  0.00    -0.232 NA
ATOM     20  C   UNL     1       1.159   2.096  -1.357  0.00  0.00    +0.109 A 
ATOM     22  C   UNL     1      -0.995   1.806  -0.945  0.00  0.00    +0.067 A 
ATOM     23  C   UNL     1      -0.356   2.463   0.102  0.00  0.00    +0.089 A 
ATOM     25  C   UNL     1      -2.356   1.499  -0.940  0.00  0.00    +0.042 A 
ATOM     26  C   UNL     1      -1.103   2.844   1.230  0.00  0.00    +0.030 A 
ATOM     29  C   UNL     1      -3.084   1.885   0.190  0.00  0.00    +0.061 A 
ATOM     30  C   UNL     1      -2.471   2.545   1.257  0.00  0.00    +0.017 A 
ATOM     39  H   UNL     1      -0.113   1.121  -2.757  0.00  0.00    +0.167 HD
BRANCH  29  34
ATOM      2  O   UNL     1      -5.252   1.520  -0.734  0.00  0.00    -0.245 OA
ATOM     34  C   UNL     1      -4.508   1.592   0.253  0.00  0.00    +0.339 C 
BRANCH  34   1
ATOM      1  O   UNL     1      -4.926   1.403   1.542  0.00  0.00    -0.464 OA
ATOM     36  C   UNL     1      -6.313   1.107   1.735  0.00  0.00    +0.280 C 
ENDBRANCH  34   1
ENDBRANCH  29  34
ENDBRANCH  16  20
ENDBRANCH  11  16
TORSDOF 10
