REMARK  Name = 26742474
REMARK  11 active torsions:
REMARK  status: ('A' for Active; 'I' for Inactive)
REMARK    1  A    between atoms: O_2  and  C_22
REMARK    2  A    between atoms: O_2  and  C_29
REMARK    3  A    between atoms: N_4  and  C_15
REMARK    4  A    between atoms: N_7  and  C_28
REMARK    5  A    between atoms: N_7  and  C_30
REMARK    6  A    between atoms: N_7  and  C_31
REMARK    7  A    between atoms: C_9  and  C_16
REMARK    8  A    between atoms: C_10  and  C_15
REMARK    9  A    between atoms: C_18  and  C_21
REMARK   10  A    between atoms: C_19  and  C_22
REMARK   11  A    between atoms: C_20  and  C_23
REMARK                            x       y       z     vdW  Elec       q    Type
REMARK                         _______ _______ _______ _____ _____    ______ ____
ROOT
ATOM      3  N   UNL     1      -2.513  -1.435   1.997  0.00  0.00    -0.297 NA
ATOM      8  C   UNL     1      -2.087  -2.476  -0.352  0.00  0.00    +0.002 C 
ATOM      9  C   UNL     1      -0.744  -2.063   0.311  0.00  0.00    +0.055 C 
ATOM     10  C   UNL     1      -3.394  -0.791   0.988  0.00  0.00    +0.074 C 
ATOM     11  C   UNL     1      -3.013  -1.245  -0.438  0.00  0.00    +0.024 C 
ATOM     12  C   UNL     1      -2.762  -3.486   0.600  0.00  0.00    +0.019 C 
ATOM     13  C   UNL     1      -1.090  -1.274   1.606  0.00  0.00    +0.094 C 
ATOM     14  C   UNL     1      -2.826  -2.884   2.014  0.00  0.00    +0.085 C 
ENDROOT
BRANCH   9  16
ATOM      5  N   UNL     1      -0.047  -1.105  -1.829  0.00  0.00    -0.237 NA
ATOM      6  N   UNL     1       2.104  -0.060  -2.128  0.00  0.00    -0.232 NA
ATOM     16  C   UNL     1       0.290  -1.344  -0.544  0.00  0.00    +0.050 A 
ATOM     17  C   UNL     1       1.498  -0.977   0.013  0.00  0.00    +0.052 A 
ATOM     18  C   UNL     1       2.374  -0.331  -0.835  0.00  0.00    +0.075 A 
ATOM     20  C   UNL     1       0.893  -0.468  -2.553  0.00  0.00    +0.127 A 
ATOM     23  C   UNL     1       0.558  -0.188  -3.979  0.00  0.00    +0.088 C 
BRANCH  18  21
ATOM     21  C   UNL     1       3.672   0.104  -0.375  0.00  0.00    +0.001 A 
ATOM     24  C   UNL     1       3.770   1.015   0.677  0.00  0.00    +0.012 A 
ATOM     25  C   UNL     1       4.827  -0.388  -0.982  0.00  0.00    +0.012 A 
ATOM     26  C   UNL     1       5.024   1.435   1.121  0.00  0.00    +0.024 A 
ATOM     27  C   UNL     1       6.081   0.032  -0.537  0.00  0.00    +0.024 A 
ATOM     28  C   UNL     1       6.179   0.943   0.514  0.00  0.00    +0.029 A 
BRANCH  28   7
ATOM      7  N   UNL     1       7.447   1.368   0.963  0.00  0.00    -0.336 N 
ATOM     30  C   UNL     1       7.560   2.315   2.055  0.00  0.00    +0.129 C 
ATOM     31  C   UNL     1       8.654   0.857   0.344  0.00  0.00    +0.129 C 
ENDBRANCH  28   7
ENDBRANCH  18  21
ENDBRANCH   9  16
BRANCH  10  15
ATOM     15  C   UNL     1      -3.409   0.734   1.116  0.00  0.00    +0.123 C 
BRANCH  15   4
ATOM      1  O   UNL     1      -6.202   1.290   1.623  0.00  0.00    -0.273 OA
ATOM      4  N   UNL     1      -4.353   1.313   0.210  0.00  0.00    -0.312 N 
ATOM     19  C   UNL     1      -5.687   1.547   0.538  0.00  0.00    +0.239 C 
ATOM     32  H   UNL     1      -4.027   1.561  -0.720  0.00  0.00    +0.149 HD
BRANCH  19  22
ATOM     22  C   UNL     1      -6.457   2.169  -0.607  0.00  0.00    +0.255 C 
BRANCH  22   2
ATOM      2  O   UNL     1      -7.799   2.404  -0.236  0.00  0.00    -0.374 OA
ATOM     29  C   UNL     1      -8.548   2.990  -1.296  0.00  0.00    +0.194 C 
ENDBRANCH  22   2
ENDBRANCH  19  22
ENDBRANCH  15   4
ENDBRANCH  10  15
TORSDOF 7
