REMARK  Name = 40779089
REMARK  3 active torsions:
REMARK  status: ('A' for Active; 'I' for Inactive)
REMARK    1  A    between atoms: N_4  and  C_12
REMARK    2  A    between atoms: C_19  and  C_23
REMARK    3  A    between atoms: C_24  and  C_27
REMARK                            x       y       z     vdW  Elec       q    Type
REMARK                         _______ _______ _______ _____ _____    ______ ____
ROOT
ATOM      2  O   UNL     1      -1.268  -3.633   2.350  0.00  0.00    -0.268 OA
ATOM      4  N   UNL     1       0.963  -0.819  -1.108  0.00  0.00    -0.298 NA
ATOM      5  N   UNL     1      -1.408  -2.188   0.513  0.00  0.00    -0.311 N 
ATOM      7  C   UNL     1      -0.408  -2.805  -1.768  0.00  0.00    +0.024 C 
ATOM      8  C   UNL     1      -1.508  -0.640  -1.464  0.00  0.00    +0.051 C 
ATOM      9  C   UNL     1      -1.500  -1.904  -2.320  0.00  0.00    +0.017 C 
ATOM     10  C   UNL     1       0.959  -2.094  -1.835  0.00  0.00    +0.090 C 
ATOM     11  C   UNL     1      -0.128   0.055  -1.562  0.00  0.00    +0.094 C 
ATOM     13  C   UNL     1      -0.787  -3.210  -0.342  0.00  0.00    +0.130 C 
ATOM     14  C   UNL     1      -1.855  -0.957  -0.006  0.00  0.00    +0.034 A 
ATOM     19  C   UNL     1      -2.549  -0.100   0.787  0.00  0.00    +0.005 A 
ATOM     20  C   UNL     1      -1.624  -2.566   1.850  0.00  0.00    +0.252 A 
ATOM     21  C   UNL     1      -2.788  -0.454   2.174  0.00  0.00    +0.015 A 
ATOM     22  C   UNL     1      -2.353  -1.599   2.701  0.00  0.00    +0.071 A 
ENDROOT
BRANCH   4  12
ATOM      3  O   UNL     1       6.498   0.336   1.305  0.00  0.00    -0.276 OA
ATOM      6  N   UNL     1       4.675   0.886  -0.025  0.00  0.00    -0.302 N 
ATOM     12  C   UNL     1       2.255  -0.150  -1.231  0.00  0.00    +0.060 C 
ATOM     15  C   UNL     1       3.377  -1.080  -0.753  0.00  0.00    +0.038 C 
ATOM     16  C   UNL     1       2.254   1.151  -0.418  0.00  0.00    +0.038 C 
ATOM     17  C   UNL     1       4.728  -0.366  -0.783  0.00  0.00    +0.109 C 
ATOM     18  C   UNL     1       3.627   1.821  -0.454  0.00  0.00    +0.109 C 
ATOM     24  C   UNL     1       5.604   1.124   0.987  0.00  0.00    +0.212 C 
ATOM     27  C   UNL     1       5.481   2.435   1.722  0.00  0.00    +0.109 C 
ENDBRANCH   4  12
BRANCH  19  23
ATOM      1  F   UNL     1      -1.026   2.279   0.881  0.00  0.00    -0.205 F 
ATOM     23  C   UNL     1      -3.055   1.194   0.280  0.00  0.00    +0.019 A 
ATOM     25  C   UNL     1      -2.258   2.336   0.352  0.00  0.00    +0.131 A 
ATOM     26  C   UNL     1      -4.334   1.270  -0.273  0.00  0.00    +0.011 A 
ATOM     28  C   UNL     1      -2.739   3.554  -0.128  0.00  0.00    +0.039 A 
ATOM     29  C   UNL     1      -4.815   2.489  -0.753  0.00  0.00    +0.001 A 
ATOM     30  C   UNL     1      -4.017   3.631  -0.680  0.00  0.00    +0.003 A 
ENDBRANCH  19  23
TORSDOF 2
