REMARK  Name = 40778181
REMARK  10 active torsions:
REMARK  status: ('A' for Active; 'I' for Inactive)
REMARK    1  A    between atoms: S_1  and  N_11
REMARK    2  A    between atoms: S_1  and  C_24
REMARK    3  A    between atoms: O_4  and  C_13
REMARK    4  A    between atoms: O_5  and  C_14
REMARK    5  A    between atoms: N_10  and  C_23
REMARK    6  A    between atoms: N_11  and  C_17
REMARK    7  A    between atoms: C_12  and  C_16
REMARK    8  A    between atoms: C_15  and  C_17
REMARK    9  A    between atoms: C_16  and  C_18
REMARK   10  A    between atoms: C_34  and  C_35
REMARK                            x       y       z     vdW  Elec       q    Type
REMARK                         _______ _______ _______ _____ _____    ______ ____
ROOT
ATOM      3  O   UNL     1       2.091   2.274  -0.672  0.00  0.00    -0.366 OA
ATOM     12  C   UNL     1       1.394   2.889   0.426  0.00  0.00    +0.158 C 
ATOM     13  C   UNL     1       2.383   2.910   1.580  0.00  0.00    +0.175 C 
ATOM     14  C   UNL     1       3.690   3.153   0.854  0.00  0.00    +0.175 C 
ATOM     15  C   UNL     1       3.513   2.317  -0.408  0.00  0.00    +0.165 C 
ENDROOT
BRANCH  13   4
ATOM      4  O   UNL     1       2.073   3.913   2.524  0.00  0.00    -0.387 OA
ATOM     36  H   UNL     1       2.804   3.945   3.165  0.00  0.00    +0.210 HD
ENDBRANCH  13   4
BRANCH  14   5
ATOM      5  O   UNL     1       3.795   4.523   0.468  0.00  0.00    -0.387 OA
ATOM     37  H   UNL     1       4.628   4.623  -0.024  0.00  0.00    +0.210 HD
ENDBRANCH  14   5
BRANCH  12  16
ATOM     16  C   UNL     1       0.130   2.106   0.732  0.00  0.00    +0.130 C 
BRANCH  16  18
ATOM      6  O   UNL     1      -0.711   3.282  -1.151  0.00  0.00    -0.276 OA
ATOM      9  N   UNL     1      -2.156   1.773  -0.135  0.00  0.00    -0.298 N 
ATOM     10  N   UNL     1      -4.636   0.281  -0.070  0.00  0.00    -0.327 N 
ATOM     18  C   UNL     1      -0.942   2.446  -0.275  0.00  0.00    +0.218 C 
ATOM     19  C   UNL     1      -3.245   2.051  -1.067  0.00  0.00    +0.126 C 
ATOM     20  C   UNL     1      -2.424   0.772   0.901  0.00  0.00    +0.126 C 
ATOM     21  C   UNL     1      -4.104   0.816  -1.327  0.00  0.00    +0.124 C 
ATOM     22  C   UNL     1      -3.918   0.586   1.170  0.00  0.00    +0.124 C 
BRANCH  10  23
ATOM      2  F   UNL     1      -9.298  -2.677  -0.013  0.00  0.00    -0.205 F 
ATOM     23  C   UNL     1      -5.812  -0.465  -0.056  0.00  0.00    +0.030 A 
ATOM     25  C   UNL     1      -6.163  -1.233  -1.165  0.00  0.00    +0.026 A 
ATOM     26  C   UNL     1      -6.638  -0.444   1.068  0.00  0.00    +0.026 A 
ATOM     29  C   UNL     1      -7.341  -1.981  -1.151  0.00  0.00    +0.040 A 
ATOM     30  C   UNL     1      -7.815  -1.192   1.083  0.00  0.00    +0.040 A 
ATOM     31  C   UNL     1      -8.166  -1.960  -0.027  0.00  0.00    +0.124 A 
ENDBRANCH  10  23
ENDBRANCH  16  18
ENDBRANCH  12  16
BRANCH  15  17
ATOM     17  C   UNL     1       4.000   0.884  -0.248  0.00  0.00    +0.140 C 
BRANCH  17  11
ATOM     11  N   UNL     1       3.792   0.150  -1.510  0.00  0.00    -0.187 NA
ATOM     38  H   UNL     1       2.823   0.115  -1.850  0.00  0.00    +0.148 HD
BRANCH  11   1
ATOM      1  S   UNL     1       4.848  -1.110  -1.949  0.00  0.00    +0.058 S 
ATOM      7  O   UNL     1       6.214  -0.622  -1.927  0.00  0.00    -0.153 OA
ATOM      8  O   UNL     1       4.329  -1.772  -3.131  0.00  0.00    -0.153 OA
BRANCH   1  24
ATOM     24  C   UNL     1       4.650  -2.235  -0.599  0.00  0.00    +0.105 A 
ATOM     27  C   UNL     1       3.672  -3.227  -0.656  0.00  0.00    +0.029 A 
ATOM     28  C   UNL     1       5.470  -2.127   0.524  0.00  0.00    +0.029 A 
ATOM     32  C   UNL     1       3.513  -4.112   0.410  0.00  0.00    +0.005 A 
ATOM     33  C   UNL     1       5.312  -3.013   1.591  0.00  0.00    +0.005 A 
ATOM     34  C   UNL     1       4.333  -4.005   1.533  0.00  0.00    -0.050 A 
ATOM     35  C   UNL     1       4.164  -4.952   2.673  0.00  0.00    +0.044 C 
ENDBRANCH   1  24
ENDBRANCH  11   1
ENDBRANCH  17  11
ENDBRANCH  15  17
TORSDOF 9
