REMARK  Name = 7134496
REMARK  12 active torsions:
REMARK  status: ('A' for Active; 'I' for Inactive)
REMARK    1  A    between atoms: S_1  and  C_22
REMARK    2  A    between atoms: S_1  and  C_26
REMARK    3  A    between atoms: O_2  and  C_13
REMARK    4  A    between atoms: O_3  and  C_16
REMARK    5  A    between atoms: O_4  and  C_18
REMARK    6  A    between atoms: N_10  and  C_14
REMARK    7  A    between atoms: N_11  and  C_21
REMARK    8  A    between atoms: C_13  and  C_19
REMARK    9  A    between atoms: C_20  and  C_22
REMARK   10  A    between atoms: C_21  and  C_23
REMARK   11  A    between atoms: C_21  and  C_24
REMARK   12  A    between atoms: C_23  and  C_25
REMARK                            x       y       z     vdW  Elec       q    Type
REMARK                         _______ _______ _______ _____ _____    ______ ____
ROOT
ATOM     13  C   UNL     1      -0.847  -1.533   0.433  0.00  0.00    +0.146 C 
ATOM     14  C   UNL     1       1.544  -2.224  -0.084  0.00  0.00    +0.107 C 
ATOM     15  C   UNL     1       0.592  -1.060   0.211  0.00  0.00    +0.069 C 
ATOM     16  C   UNL     1       1.043  -3.091  -1.247  0.00  0.00    +0.163 C 
ATOM     17  C   UNL     1      -1.339  -2.377  -0.741  0.00  0.00    +0.078 C 
ATOM     18  C   UNL     1      -0.403  -3.549  -1.040  0.00  0.00    +0.148 C 
ENDROOT
BRANCH  13  19
ATOM      5  O   UNL     1      -2.422  -0.237   1.675  0.00  0.00    -0.273 OA
ATOM     11  N   UNL     1      -1.770   0.501  -0.434  0.00  0.00    -0.301 N 
ATOM     19  C   UNL     1      -1.761  -0.363   0.648  0.00  0.00    +0.246 C 
ATOM     41  H   UNL     1      -1.215   0.288  -1.257  0.00  0.00    +0.150 HD
BRANCH  11  21
ATOM     21  C   UNL     1      -2.585   1.693  -0.487  0.00  0.00    +0.163 C 
BRANCH  21  24
ATOM      9  O   UNL     1      -1.075   2.463  -2.229  0.00  0.00    -0.274 OA
ATOM     12  N   UNL     1      -2.041   4.021  -0.844  0.00  0.00    -0.328 N 
ATOM     24  C   UNL     1      -1.804   2.733  -1.277  0.00  0.00    +0.231 C 
ATOM     42  H   UNL     1      -2.664   4.231  -0.071  0.00  0.00    +0.145 HD
ATOM     43  H   UNL     1      -1.592   4.812  -1.294  0.00  0.00    +0.145 HD
ENDBRANCH  21  24
BRANCH  21  23
ATOM     23  C   UNL     1      -3.948   1.438  -1.141  0.00  0.00    +0.067 C 
BRANCH  23  25
ATOM     25  C   UNL     1      -4.927   0.787  -0.192  0.00  0.00    -0.045 A 
ATOM     27  C   UNL     1      -4.991  -0.595  -0.125  0.00  0.00    +0.004 A 
ATOM     28  C   UNL     1      -5.743   1.585   0.594  0.00  0.00    +0.004 A 
ATOM     31  C   UNL     1      -5.895  -1.196   0.751  0.00  0.00    +0.000 A 
ATOM     32  C   UNL     1      -6.647   0.984   1.470  0.00  0.00    +0.000 A 
ATOM     33  C   UNL     1      -6.723  -0.407   1.548  0.00  0.00    +0.000 A 
ENDBRANCH  23  25
ENDBRANCH  21  23
ENDBRANCH  11  21
ENDBRANCH  13  19
BRANCH  14  10
ATOM      6  O   UNL     1       3.631  -1.676   1.829  0.00  0.00    -0.274 OA
ATOM     10  N   UNL     1       2.868  -1.714  -0.363  0.00  0.00    -0.308 N 
ATOM     20  C   UNL     1       3.807  -1.481   0.630  0.00  0.00    +0.235 C 
ATOM     37  H   UNL     1       3.081  -1.458  -1.323  0.00  0.00    +0.149 HD
BRANCH  20  22
ATOM     22  C   UNL     1       5.097  -0.955   0.050  0.00  0.00    +0.267 C 
BRANCH  22   1
ATOM      1  S   UNL     1       5.526   0.628   0.688  0.00  0.00    +0.005 S 
ATOM      7  O   UNL     1       5.569   0.531   2.139  0.00  0.00    -0.169 OA
ATOM      8  O   UNL     1       6.676   1.136  -0.042  0.00  0.00    -0.169 OA
BRANCH   1  26
ATOM     26  C   UNL     1       4.151   1.656   0.257  0.00  0.00    +0.089 A 
ATOM     29  C   UNL     1       3.092   1.770   1.139  0.00  0.00    +0.027 A 
ATOM     30  C   UNL     1       4.163   2.323  -0.955  0.00  0.00    +0.027 A 
ATOM     34  C   UNL     1       2.008   2.579   0.798  0.00  0.00    +0.002 A 
ATOM     35  C   UNL     1       3.079   3.132  -1.296  0.00  0.00    +0.002 A 
ATOM     36  C   UNL     1       2.001   3.260  -0.419  0.00  0.00    +0.000 A 
ENDBRANCH   1  26
ENDBRANCH  22   1
ENDBRANCH  20  22
ENDBRANCH  14  10
BRANCH  13   2
ATOM      2  O   UNL     1      -0.940  -2.299   1.628  0.00  0.00    -0.379 OA
ATOM     38  H   UNL     1      -1.840  -2.664   1.690  0.00  0.00    +0.211 HD
ENDBRANCH  13   2
BRANCH  16   3
ATOM      3  O   UNL     1       1.858  -4.262  -1.341  0.00  0.00    -0.387 OA
ATOM     39  H   UNL     1       1.640  -4.707  -2.177  0.00  0.00    +0.210 HD
ENDBRANCH  16   3
BRANCH  18   4
ATOM      4  O   UNL     1      -0.846  -4.200  -2.232  0.00  0.00    -0.389 OA
ATOM     40  H   UNL     1      -0.348  -5.030  -2.317  0.00  0.00    +0.210 HD
ENDBRANCH  18   4
TORSDOF 12
