REMARK  Name = 71694041
REMARK  9 active torsions:
REMARK  status: ('A' for Active; 'I' for Inactive)
REMARK    1  A    between atoms: O_4  and  C_10
REMARK    2  A    between atoms: O_5  and  C_12
REMARK    3  A    between atoms: O_6  and  C_26
REMARK    4  A    between atoms: O_6  and  C_27
REMARK    5  A    between atoms: N_7  and  C_9
REMARK    6  A    between atoms: N_7  and  C_14
REMARK    7  A    between atoms: C_8  and  C_13
REMARK    8  A    between atoms: C_14  and  C_17
REMARK    9  A    between atoms: C_20  and  C_23
REMARK                            x       y       z     vdW  Elec       q    Type
REMARK                         _______ _______ _______ _____ _____    ______ ____
ROOT
ATOM      8  C   UNL     1       1.127  -1.708  -1.061  0.00  0.00    +0.041 C 
ATOM      9  C   UNL     1      -0.023  -1.849  -0.038  0.00  0.00    +0.092 C 
ATOM     10  C   UNL     1      -0.407  -3.325  -0.148  0.00  0.00    +0.160 C 
ATOM     11  C   UNL     1       1.753  -3.124  -1.178  0.00  0.00    +0.043 C 
ATOM     12  C   UNL     1       0.949  -4.018  -0.233  0.00  0.00    +0.145 C 
ENDROOT
BRANCH   8  13
ATOM     13  C   UNL     1       2.117  -0.621  -0.698  0.00  0.00    -0.043 A 
ATOM     15  C   UNL     1       2.340   0.440  -1.577  0.00  0.00    +0.004 A 
ATOM     16  C   UNL     1       2.804  -0.679   0.514  0.00  0.00    +0.004 A 
ATOM     18  C   UNL     1       3.251   1.442  -1.243  0.00  0.00    +0.012 A 
ATOM     19  C   UNL     1       3.716   0.323   0.848  0.00  0.00    +0.012 A 
ATOM     20  C   UNL     1       3.939   1.383  -0.031  0.00  0.00    +0.055 A 
BRANCH  20  23
ATOM      1  F   UNL     1       6.184   1.999   0.520  0.00  0.00    -0.166 F 
ATOM      2  F   UNL     1       4.593   3.121   1.477  0.00  0.00    -0.166 F 
ATOM      3  F   UNL     1       5.009   3.418  -0.636  0.00  0.00    -0.166 F 
ATOM     23  C   UNL     1       4.911   2.456   0.327  0.00  0.00    +0.417 C 
ENDBRANCH  20  23
ENDBRANCH   8  13
BRANCH  10   4
ATOM      4  O   UNL     1      -1.155  -3.755   0.973  0.00  0.00    -0.388 OA
ATOM     29  H   UNL     1      -1.276  -4.716   0.890  0.00  0.00    +0.210 HD
ENDBRANCH  10   4
BRANCH  12   5
ATOM      5  O   UNL     1       1.572  -4.037   1.048  0.00  0.00    -0.389 OA
ATOM     30  H   UNL     1       2.451  -4.440   0.939  0.00  0.00    +0.210 HD
ENDBRANCH  12   5
BRANCH   9   7
ATOM      7  N   UNL     1      -1.147  -0.973  -0.350  0.00  0.00    -0.306 NA
ATOM     28  H   UNL     1      -0.787  -0.068  -0.655  0.00  0.00    +0.123 HD
BRANCH   7  14
ATOM     14  C   UNL     1      -1.989  -0.772   0.820  0.00  0.00    +0.116 C 
BRANCH  14  17
ATOM     17  C   UNL     1      -3.161   0.124   0.520  0.00  0.00    -0.033 A 
ATOM     21  C   UNL     1      -2.976   1.502   0.410  0.00  0.00    +0.008 A 
ATOM     22  C   UNL     1      -4.433  -0.424   0.350  0.00  0.00    +0.008 A 
ATOM     24  C   UNL     1      -4.062   2.332   0.132  0.00  0.00    +0.046 A 
ATOM     25  C   UNL     1      -5.519   0.405   0.072  0.00  0.00    +0.046 A 
ATOM     26  C   UNL     1      -5.334   1.783  -0.037  0.00  0.00    +0.120 A 
BRANCH  26   6
ATOM      6  O   UNL     1      -6.393   2.593  -0.310  0.00  0.00    -0.495 OA
ATOM     27  C   UNL     1      -7.665   1.965  -0.471  0.00  0.00    +0.277 C 
ENDBRANCH  26   6
ENDBRANCH  14  17
ENDBRANCH   7  14
ENDBRANCH   9   7
TORSDOF 8
