REMARK  Name = 51137928
REMARK  4 active torsions:
REMARK  status: ('A' for Active; 'I' for Inactive)
REMARK    1  A    between atoms: C_7  and  C_11
REMARK    2  A    between atoms: C_14  and  C_16
REMARK    3  A    between atoms: C_18  and  C_24
REMARK    4  A    between atoms: C_21  and  C_25
REMARK                            x       y       z     vdW  Elec       q    Type
REMARK                         _______ _______ _______ _____ _____    ______ ____
ROOT
ATOM      2  N   UNL     1      -1.740  -1.685   0.145  0.00  0.00    -0.314 N 
ATOM      4  N   UNL     1      -2.986  -0.184  -1.165  0.00  0.00    -0.239 NA
ATOM      7  C   UNL     1       0.012  -3.191  -0.410  0.00  0.00    +0.095 C 
ATOM      8  C   UNL     1      -0.545  -3.536   0.974  0.00  0.00    +0.033 C 
ATOM      9  C   UNL     1      -1.116  -2.330  -1.011  0.00  0.00    +0.119 C 
ATOM     10  C   UNL     1      -1.293  -2.274   1.403  0.00  0.00    +0.107 C 
ATOM     12  C   UNL     1      -2.646  -0.649   0.058  0.00  0.00    +0.121 A 
ATOM     13  C   UNL     1      -3.153  -0.150   1.246  0.00  0.00    +0.045 A 
ATOM     15  C   UNL     1      -4.069   0.894   1.175  0.00  0.00    +0.024 A 
ATOM     17  C   UNL     1      -3.878   0.832  -1.195  0.00  0.00    +0.131 A 
ATOM     18  C   UNL     1      -4.443   1.400  -0.065  0.00  0.00    +0.070 A 
ENDROOT
BRANCH   7  11
ATOM      1  O   UNL     1       1.421  -1.188  -0.229  0.00  0.00    -0.420 OA
ATOM      3  N   UNL     1       2.572  -3.105  -0.307  0.00  0.00    -0.112 NA
ATOM      5  N   UNL     1       3.478  -2.066  -0.206  0.00  0.00    -0.107 NA
ATOM     11  C   UNL     1       1.384  -2.546  -0.317  0.00  0.00    +0.222 A 
ATOM     14  C   UNL     1       2.763  -0.967  -0.163  0.00  0.00    +0.248 A 
BRANCH  14  16
ATOM     16  C   UNL     1       3.168   0.405  -0.060  0.00  0.00    +0.038 A 
ATOM     19  C   UNL     1       4.523   0.728   0.013  0.00  0.00    +0.013 A 
ATOM     20  C   UNL     1       2.208   1.416  -0.033  0.00  0.00    +0.013 A 
ATOM     21  C   UNL     1       3.958   3.073   0.141  0.00  0.00    -0.050 A 
ATOM     22  C   UNL     1       4.918   2.061   0.114  0.00  0.00    +0.004 A 
ATOM     23  C   UNL     1       2.603   2.750   0.068  0.00  0.00    +0.004 A 
ATOM     25  C   UNL     1       4.380   4.499   0.249  0.00  0.00    +0.044 C 
ENDBRANCH  14  16
ENDBRANCH   7  11
BRANCH  18  24
ATOM      6  N   UNL     1      -6.141   3.343  -0.255  0.00  0.00    -0.191 NA
ATOM     24  C   UNL     1      -5.379   2.471  -0.170  0.00  0.00    +0.101 C 
ENDBRANCH  18  24
TORSDOF 3
