REMARK  Name = 26742963
REMARK  9 active torsions:
REMARK  status: ('A' for Active; 'I' for Inactive)
REMARK    1  A    between atoms: N_4  and  C_13
REMARK    2  A    between atoms: C_6  and  C_10
REMARK    3  A    between atoms: C_7  and  C_12
REMARK    4  A    between atoms: C_10  and  C_16
REMARK    5  A    between atoms: C_12  and  C_20
REMARK    6  A    between atoms: C_22  and  C_23
REMARK    7  A    between atoms: C_23  and  C_24
REMARK    8  A    between atoms: C_24  and  C_25
REMARK    9  A    between atoms: C_25  and  C_26
REMARK                            x       y       z     vdW  Elec       q    Type
REMARK                         _______ _______ _______ _____ _____    ______ ____
ROOT
ATOM      3  N   UNL     1       0.080   2.167   0.514  0.00  0.00    -0.316 NA
ATOM      6  C   UNL     1      -0.828  -0.616   0.882  0.00  0.00    +0.004 C 
ATOM      7  C   UNL     1       0.622  -0.256   0.480  0.00  0.00    +0.012 C 
ATOM      8  C   UNL     1      -1.456   0.579   1.619  0.00  0.00    +0.019 C 
ATOM      9  C   UNL     1       0.688   1.088  -0.265  0.00  0.00    +0.085 C 
ATOM     11  C   UNL     1      -1.317   1.884   0.837  0.00  0.00    +0.081 C 
ATOM     27  H   UNL     1       0.134   3.037  -0.014  0.00  0.00    +0.122 HD
ENDROOT
BRANCH   6  10
ATOM     10  C   UNL     1      -1.709  -1.058  -0.292  0.00  0.00    +0.099 C 
BRANCH  10  16
ATOM      1  O   UNL     1      -3.360  -2.326   0.941  0.00  0.00    -0.276 OA
ATOM      4  N   UNL     1      -4.055  -0.605  -0.459  0.00  0.00    -0.312 N 
ATOM     16  C   UNL     1      -3.111  -1.421   0.148  0.00  0.00    +0.214 C 
ATOM     28  H   UNL     1      -3.740   0.160  -1.047  0.00  0.00    +0.149 HD
BRANCH   4  13
ATOM     13  C   UNL     1      -5.476  -0.729  -0.222  0.00  0.00    +0.073 C 
ATOM     14  C   UNL     1      -5.908   0.105   0.989  0.00  0.00    +0.022 C 
ATOM     15  C   UNL     1      -6.278  -0.351  -1.472  0.00  0.00    +0.022 C 
ATOM     17  C   UNL     1      -5.880   1.607   0.704  0.00  0.00    +0.002 C 
ATOM     18  C   UNL     1      -6.249   1.151  -1.753  0.00  0.00    +0.002 C 
ATOM     19  C   UNL     1      -6.694   1.960  -0.538  0.00  0.00    +0.000 C 
ENDBRANCH   4  13
ENDBRANCH  10  16
ENDBRANCH   6  10
BRANCH   7  12
ATOM     12  C   UNL     1       1.310  -1.354  -0.333  0.00  0.00    +0.064 C 
BRANCH  12  20
ATOM      2  O   UNL     1       4.805  -1.567   0.501  0.00  0.00    -0.359 OA
ATOM      5  N   UNL     1       3.468  -1.879   0.717  0.00  0.00    -0.083 NA
ATOM     20  C   UNL     1       2.804  -1.241  -0.251  0.00  0.00    +0.084 A 
ATOM     21  C   UNL     1       3.661  -0.518  -1.099  0.00  0.00    +0.071 A 
ATOM     22  C   UNL     1       4.907  -0.756  -0.582  0.00  0.00    +0.138 A 
BRANCH  22  23
ATOM     23  C   UNL     1       6.261  -0.327  -0.955  0.00  0.00    +0.077 C 
BRANCH  23  24
ATOM     24  C   UNL     1       6.810   0.797  -0.048  0.00  0.00    +0.007 C 
BRANCH  24  25
ATOM     25  C   UNL     1       8.202   1.267  -0.473  0.00  0.00    -0.003 C 
ATOM     26  C   UNL     1       8.701   2.399   0.410  0.00  0.00    +0.004 C 
ENDBRANCH  24  25
ENDBRANCH  23  24
ENDBRANCH  22  23
ENDBRANCH  12  20
ENDBRANCH   7  12
TORSDOF 8
