REMARK  Name = 75536076
REMARK  5 active torsions:
REMARK  status: ('A' for Active; 'I' for Inactive)
REMARK    1  A    between atoms: O_2  and  C_9
REMARK    2  A    between atoms: O_3  and  C_11
REMARK    3  A    between atoms: N_5  and  C_8
REMARK    4  A    between atoms: C_7  and  C_12
REMARK    5  A    between atoms: C_15  and  C_16
REMARK                            x       y       z     vdW  Elec       q    Type
REMARK                         _______ _______ _______ _____ _____    ______ ____
ROOT
ATOM      7  C   UNL     1       2.519   0.460   0.963  0.00  0.00    +0.046 C 
ATOM      8  C   UNL     1       1.720   1.210  -0.127  0.00  0.00    +0.112 C 
ATOM      9  C   UNL     1       2.130   2.668   0.071  0.00  0.00    +0.164 C 
ATOM     10  C   UNL     1       3.729   1.370   1.301  0.00  0.00    +0.044 C 
ATOM     11  C   UNL     1       3.623   2.571   0.363  0.00  0.00    +0.145 C 
ENDROOT
BRANCH   7  12
ATOM      6  N   UNL     1       2.765  -3.325   0.993  0.00  0.00    -0.263 NA
ATOM     12  C   UNL     1       2.893  -0.950   0.559  0.00  0.00    -0.024 A 
ATOM     13  C   UNL     1       3.675  -1.190  -0.566  0.00  0.00    +0.007 A 
ATOM     14  C   UNL     1       2.467  -2.042   1.298  0.00  0.00    +0.114 A 
ATOM     17  C   UNL     1       4.003  -2.496  -0.912  0.00  0.00    +0.020 A 
ATOM     18  C   UNL     1       3.528  -3.519  -0.107  0.00  0.00    +0.111 A 
ENDBRANCH   7  12
BRANCH   8   5
ATOM      4  O   UNL     1       0.105  -0.788  -1.410  0.00  0.00    -0.270 OA
ATOM      5  N   UNL     1       0.298   1.026   0.022  0.00  0.00    -0.305 N 
ATOM     15  C   UNL     1      -0.400   0.027  -0.642  0.00  0.00    +0.251 C 
ATOM     26  H   UNL     1      -0.183   1.635   0.675  0.00  0.00    +0.149 HD
BRANCH  15  16
ATOM      1  S   UNL     1      -2.803  -1.209  -1.175  0.00  0.00    -0.084 S 
ATOM     16  C   UNL     1      -1.866  -0.013  -0.402  0.00  0.00    +0.075 A 
ATOM     19  C   UNL     1      -2.630   0.807   0.393  0.00  0.00    +0.029 A 
ATOM     20  C   UNL     1      -4.023   0.459   0.378  0.00  0.00    -0.010 A 
ATOM     21  C   UNL     1      -4.261  -0.641  -0.451  0.00  0.00    +0.020 A 
ATOM     22  C   UNL     1      -5.125   1.043   1.049  0.00  0.00    +0.009 A 
ATOM     23  C   UNL     1      -5.556  -1.166  -0.624  0.00  0.00    +0.015 A 
ATOM     24  C   UNL     1      -6.411   0.525   0.879  0.00  0.00    +0.001 A 
ATOM     25  C   UNL     1      -6.623  -0.569   0.051  0.00  0.00    +0.001 A 
ENDBRANCH  15  16
ENDBRANCH   8   5
BRANCH   9   2
ATOM      2  O   UNL     1       1.885   3.455  -1.079  0.00  0.00    -0.387 OA
ATOM     27  H   UNL     1       2.256   4.339  -0.913  0.00  0.00    +0.210 HD
ENDBRANCH   9   2
BRANCH  11   3
ATOM      3  O   UNL     1       4.358   2.290  -0.824  0.00  0.00    -0.389 OA
ATOM     28  H   UNL     1       5.293   2.200  -0.573  0.00  0.00    +0.210 HD
ENDBRANCH  11   3
TORSDOF 5
