REMARK  Name = 11865846
REMARK  10 active torsions:
REMARK  status: ('A' for Active; 'I' for Inactive)
REMARK    1  A    between atoms: S_1  and  C_25
REMARK    2  A    between atoms: S_1  and  C_29
REMARK    3  A    between atoms: N_7  and  C_11
REMARK    4  A    between atoms: N_8  and  C_15
REMARK    5  A    between atoms: N_9  and  C_24
REMARK    6  A    between atoms: C_12  and  C_20
REMARK    7  A    between atoms: C_22  and  C_25
REMARK    8  A    between atoms: C_24  and  C_26
REMARK    9  A    between atoms: C_24  and  C_27
REMARK   10  A    between atoms: C_26  and  C_28
REMARK                            x       y       z     vdW  Elec       q    Type
REMARK                         _______ _______ _______ _____ _____    ______ ____
ROOT
ATOM      3  O   UNL     1       2.416  -2.784  -1.722  0.00  0.00    -0.275 OA
ATOM      6  N   UNL     1       1.248  -2.427   0.245  0.00  0.00    -0.287 N 
ATOM     11  C   UNL     1      -0.232  -0.726   0.979  0.00  0.00    +0.105 C 
ATOM     12  C   UNL     1       0.861  -1.049  -0.040  0.00  0.00    +0.182 C 
ATOM     13  C   UNL     1       0.101  -1.641   2.161  0.00  0.00    +0.043 C 
ATOM     14  C   UNL     1       0.671  -2.892   1.503  0.00  0.00    +0.110 C 
ATOM     22  C   UNL     1       1.941  -3.209  -0.667  0.00  0.00    +0.226 C 
ENDROOT
BRANCH  11   7
ATOM      4  O   UNL     1      -2.713   0.508   1.743  0.00  0.00    -0.253 OA
ATOM      7  N   UNL     1      -1.541  -1.015   0.444  0.00  0.00    -0.294 N 
ATOM      8  N   UNL     1      -3.819  -0.828   0.200  0.00  0.00    -0.297 N 
ATOM     23  C   UNL     1      -2.694  -0.364   0.875  0.00  0.00    +0.300 C 
ATOM     35  H   UNL     1      -1.637  -1.774  -0.225  0.00  0.00    +0.151 HD
ATOM     36  H   UNL     1      -3.679  -1.498  -0.551  0.00  0.00    +0.151 HD
BRANCH   8  15
ATOM     15  C   UNL     1      -5.153  -0.328   0.447  0.00  0.00    +0.074 C 
ATOM     16  C   UNL     1      -5.450   0.900  -0.421  0.00  0.00    +0.022 C 
ATOM     17  C   UNL     1      -6.201  -1.425   0.234  0.00  0.00    +0.022 C 
ATOM     18  C   UNL     1      -5.637   0.543  -1.895  0.00  0.00    +0.002 C 
ATOM     19  C   UNL     1      -6.387  -1.779  -1.242  0.00  0.00    +0.002 C 
ATOM     21  C   UNL     1      -6.693  -0.543  -2.082  0.00  0.00    +0.000 C 
ENDBRANCH   8  15
ENDBRANCH  11   7
BRANCH  12  20
ATOM      2  O   UNL     1       2.938  -0.511   1.008  0.00  0.00    -0.274 OA
ATOM      9  N   UNL     1       2.098   0.916  -0.628  0.00  0.00    -0.302 N 
ATOM     20  C   UNL     1       2.083  -0.208   0.180  0.00  0.00    +0.236 C 
ATOM     37  H   UNL     1       1.375   1.023  -1.333  0.00  0.00    +0.150 HD
BRANCH   9  24
ATOM     24  C   UNL     1       3.155   1.900  -0.593  0.00  0.00    +0.163 C 
BRANCH  24  27
ATOM      5  O   UNL     1       4.025   0.815  -2.586  0.00  0.00    -0.274 OA
ATOM     10  N   UNL     1       5.511   1.780  -1.123  0.00  0.00    -0.328 N 
ATOM     27  C   UNL     1       4.246   1.420  -1.539  0.00  0.00    +0.231 C 
ATOM     38  H   UNL     1       5.676   2.300  -0.267  0.00  0.00    +0.145 HD
ATOM     39  H   UNL     1       6.329   1.534  -1.671  0.00  0.00    +0.145 HD
ENDBRANCH  24  27
BRANCH  24  26
ATOM     26  C   UNL     1       2.665   3.293  -1.006  0.00  0.00    +0.067 C 
BRANCH  26  28
ATOM     28  C   UNL     1       1.560   3.810  -0.118  0.00  0.00    -0.045 A 
ATOM     30  C   UNL     1       0.228   3.543  -0.435  0.00  0.00    +0.004 A 
ATOM     31  C   UNL     1       1.870   4.554   1.020  0.00  0.00    +0.004 A 
ATOM     32  C   UNL     1      -0.794   4.021   0.386  0.00  0.00    +0.000 A 
ATOM     33  C   UNL     1       0.849   5.032   1.841  0.00  0.00    +0.000 A 
ATOM     34  C   UNL     1      -0.483   4.765   1.524  0.00  0.00    +0.000 A 
ENDBRANCH  26  28
ENDBRANCH  24  26
ENDBRANCH   9  24
ENDBRANCH  12  20
BRANCH  22  25
ATOM     25  C   UNL     1       2.103  -4.660  -0.289  0.00  0.00    +0.164 C 
BRANCH  25   1
ATOM      1  S   UNL     1       3.636  -4.815   0.639  0.00  0.00    -0.155 S 
ATOM     29  C   UNL     1       3.590  -6.596   0.959  0.00  0.00    +0.085 C 
ENDBRANCH  25   1
ENDBRANCH  22  25
TORSDOF 9
