REMARK  Name = 7673825
REMARK  5 active torsions:
REMARK  status: ('A' for Active; 'I' for Inactive)
REMARK    1  A    between atoms: S_1  and  C_19
REMARK    2  A    between atoms: S_1  and  C_25
REMARK    3  A    between atoms: C_16  and  C_19
REMARK    4  A    between atoms: C_17  and  C_20
REMARK    5  A    between atoms: C_23  and  C_27
REMARK                            x       y       z     vdW  Elec       q    Type
REMARK                         _______ _______ _______ _____ _____    ______ ____
ROOT
ATOM      2  O   UNL     1       0.703  -1.560  -1.721  0.00  0.00    -0.267 OA
ATOM      3  O   UNL     1      -3.009   2.281  -1.978  0.00  0.00    -0.275 OA
ATOM      4  N   UNL     1      -3.561   0.713  -0.354  0.00  0.00    -0.300 N 
ATOM      5  N   UNL     1      -1.127  -1.354  -0.290  0.00  0.00    -0.311 N 
ATOM      7  C   UNL     1      -3.540  -1.676  -1.084  0.00  0.00    +0.027 C 
ATOM      8  C   UNL     1      -3.092  -1.115   1.268  0.00  0.00    +0.054 C 
ATOM      9  C   UNL     1      -3.808  -2.106   0.353  0.00  0.00    +0.018 C 
ATOM     10  C   UNL     1      -4.071  -0.253  -1.330  0.00  0.00    +0.113 C 
ATOM     11  C   UNL     1      -2.036  -1.785  -1.361  0.00  0.00    +0.130 C 
ATOM     12  C   UNL     1      -3.671   0.297   1.052  0.00  0.00    +0.117 C 
ATOM     13  C   UNL     1      -1.599  -1.104   1.001  0.00  0.00    +0.027 A 
ATOM     14  C   UNL     1      -0.736  -0.829   1.992  0.00  0.00    +0.022 A 
ATOM     15  C   UNL     1       0.246  -1.313  -0.604  0.00  0.00    +0.259 A 
ATOM     16  C   UNL     1      -3.094   1.952  -0.791  0.00  0.00    +0.225 C 
ATOM     17  C   UNL     1       1.185  -0.965   0.519  0.00  0.00    +0.047 A 
ATOM     18  C   UNL     1       0.675  -0.754   1.742  0.00  0.00    +0.015 A 
ENDROOT
BRANCH  17  20
ATOM     20  C   UNL     1       2.636  -0.848   0.292  0.00  0.00    -0.011 A 
ATOM     21  C   UNL     1       3.190   0.379  -0.073  0.00  0.00    +0.027 A 
ATOM     22  C   UNL     1       3.458  -1.965   0.443  0.00  0.00    +0.009 A 
ATOM     23  C   UNL     1       4.564   0.489  -0.288  0.00  0.00    +0.052 A 
ATOM     24  C   UNL     1       4.832  -1.856   0.229  0.00  0.00    +0.002 A 
ATOM     26  C   UNL     1       5.385  -0.629  -0.137  0.00  0.00    +0.019 A 
BRANCH  23  27
ATOM      6  N   UNL     1       5.593   2.767  -0.970  0.00  0.00    -0.191 NA
ATOM     27  C   UNL     1       5.131   1.746  -0.664  0.00  0.00    +0.099 C 
ENDBRANCH  23  27
ENDBRANCH  17  20
BRANCH  16  19
ATOM     19  C   UNL     1      -2.666   2.927   0.276  0.00  0.00    +0.164 C 
BRANCH  19   1
ATOM      1  S   UNL     1      -0.919   2.650   0.601  0.00  0.00    -0.155 S 
ATOM     25  C   UNL     1      -0.669   3.909   1.877  0.00  0.00    +0.085 C 
ENDBRANCH  19   1
ENDBRANCH  16  19
TORSDOF 4
