REMARK  Name = 25339256
REMARK  9 active torsions:
REMARK  status: ('A' for Active; 'I' for Inactive)
REMARK    1  A    between atoms: N_7  and  C_11
REMARK    2  A    between atoms: N_8  and  C_21
REMARK    3  A    between atoms: N_8  and  C_22
REMARK    4  A    between atoms: C_10  and  C_15
REMARK    5  A    between atoms: C_15  and  C_17
REMARK    6  A    between atoms: C_17  and  C_19
REMARK    7  A    between atoms: C_18  and  C_20
REMARK    8  A    between atoms: C_21  and  C_24
REMARK    9  A    between atoms: C_22  and  C_25
REMARK                            x       y       z     vdW  Elec       q    Type
REMARK                         _______ _______ _______ _____ _____    ______ ____
ROOT
ATOM      2  O   UNL     1       1.232  -4.303   0.866  0.00  0.00    -0.274 OA
ATOM      5  N   UNL     1       0.148  -1.139  -0.282  0.00  0.00    -0.285 NA
ATOM      6  N   UNL     1      -0.813  -3.289   1.106  0.00  0.00    -0.313 N 
ATOM      9  C   UNL     1       0.735  -2.449  -0.579  0.00  0.00    +0.145 C 
ATOM     10  C   UNL     1      -1.312  -1.236  -0.255  0.00  0.00    +0.075 C 
ATOM     11  C   UNL     1       2.186  -0.680  -1.334  0.00  0.00    +0.089 C 
ATOM     12  C   UNL     1       2.204  -2.112  -0.787  0.00  0.00    +0.052 C 
ATOM     13  C   UNL     1       0.718  -0.246  -1.291  0.00  0.00    +0.107 C 
ATOM     14  C   UNL     1      -1.676  -2.129   0.939  0.00  0.00    +0.123 C 
ATOM     16  C   UNL     1       0.446  -3.412   0.549  0.00  0.00    +0.230 C 
ATOM     28  H   UNL     1      -1.077  -3.965   1.817  0.00  0.00    +0.149 HD
ENDROOT
BRANCH  11   7
ATOM      3  O   UNL     1       4.961  -0.101  -1.789  0.00  0.00    -0.270 OA
ATOM      7  N   UNL     1       3.025   0.189  -0.546  0.00  0.00    -0.307 N 
ATOM     18  C   UNL     1       4.362   0.407  -0.845  0.00  0.00    +0.251 C 
ATOM     29  H   UNL     1       2.615   0.601   0.285  0.00  0.00    +0.149 HD
BRANCH  18  20
ATOM      1  S   UNL     1       6.752   1.635  -0.213  0.00  0.00    -0.092 S 
ATOM     20  C   UNL     1       5.097   1.309   0.080  0.00  0.00    +0.074 A 
ATOM     23  C   UNL     1       4.632   1.961   1.200  0.00  0.00    +0.021 A 
ATOM     26  C   UNL     1       5.648   2.740   1.826  0.00  0.00    +0.008 A 
ATOM     27  C   UNL     1       6.851   2.652   1.160  0.00  0.00    +0.046 A 
ENDBRANCH  18  20
ENDBRANCH  11   7
BRANCH  10  15
ATOM     15  C   UNL     1      -2.001   0.122  -0.107  0.00  0.00    +0.029 C 
BRANCH  15  17
ATOM     17  C   UNL     1      -3.519  -0.027  -0.102  0.00  0.00    +0.097 C 
BRANCH  17  19
ATOM      4  O   UNL     1      -3.581   2.359   0.112  0.00  0.00    -0.276 OA
ATOM      8  N   UNL     1      -5.628   1.271   0.038  0.00  0.00    -0.302 N 
ATOM     19  C   UNL     1      -4.230   1.313   0.026  0.00  0.00    +0.216 C 
BRANCH   8  21
ATOM     21  C   UNL     1      -6.438   0.059  -0.060  0.00  0.00    +0.104 C 
ATOM     24  C   UNL     1      -6.729  -0.526   1.306  0.00  0.00    +0.024 C 
ENDBRANCH   8  21
BRANCH   8  22
ATOM     22  C   UNL     1      -6.383   2.511   0.169  0.00  0.00    +0.104 C 
ATOM     25  C   UNL     1      -6.687   3.120  -1.185  0.00  0.00    +0.024 C 
ENDBRANCH   8  22
ENDBRANCH  17  19
ENDBRANCH  15  17
ENDBRANCH  10  15
TORSDOF 7
