REMARK  Name = 26745467
REMARK  7 active torsions:
REMARK  status: ('A' for Active; 'I' for Inactive)
REMARK    1  A    between atoms: S_2  and  N_7
REMARK    2  A    between atoms: S_2  and  C_17
REMARK    3  A    between atoms: O_5  and  C_16
REMARK    4  A    between atoms: O_5  and  C_29
REMARK    5  A    between atoms: N_8  and  C_18
REMARK    6  A    between atoms: C_11  and  C_16
REMARK    7  A    between atoms: C_18  and  C_21
REMARK                            x       y       z     vdW  Elec       q    Type
REMARK                         _______ _______ _______ _____ _____    ______ ____
ROOT
ATOM      7  N   UNL     1       1.271  -1.052   0.478  0.00  0.00    -0.157 NA
ATOM      8  N   UNL     1      -2.177  -1.858  -0.746  0.00  0.00    -0.328 N 
ATOM      9  N   UNL     1      -2.030  -3.592   0.656  0.00  0.00    -0.240 NA
ATOM     11  C   UNL     1       1.595  -2.477   0.861  0.00  0.00    +0.194 C 
ATOM     12  C   UNL     1       0.170  -0.884  -0.547  0.00  0.00    +0.165 C 
ATOM     13  C   UNL     1       0.369  -3.246   1.393  0.00  0.00    +0.089 C 
ATOM     14  C   UNL     1      -0.913  -1.836  -0.239  0.00  0.00    +0.057 A 
ATOM     15  C   UNL     1      -0.845  -2.910   0.614  0.00  0.00    +0.066 A 
ATOM     19  C   UNL     1      -2.812  -2.934  -0.176  0.00  0.00    +0.200 A 
ENDROOT
BRANCH   7   2
ATOM      2  S   UNL     1       1.265   0.080   1.768  0.00  0.00    +0.064 S 
ATOM      3  O   UNL     1       2.459  -0.105   2.564  0.00  0.00    -0.153 OA
ATOM      4  O   UNL     1      -0.046   0.086   2.381  0.00  0.00    -0.153 OA
BRANCH   2  17
ATOM     10  N   UNL     1       3.687   1.031   0.303  0.00  0.00    -0.253 NA
ATOM     17  C   UNL     1       1.447   1.582   0.860  0.00  0.00    +0.131 A 
ATOM     20  C   UNL     1       2.649   1.886   0.227  0.00  0.00    +0.097 A 
ATOM     22  C   UNL     1       0.350   2.445   0.802  0.00  0.00    +0.031 A 
ATOM     23  C   UNL     1       2.736   3.101  -0.484  0.00  0.00    +0.002 A 
ATOM     24  C   UNL     1       0.443   3.640   0.100  0.00  0.00    +0.003 A 
ATOM     25  C   UNL     1       1.633   3.969  -0.543  0.00  0.00    +0.010 A 
ATOM     28  C   UNL     1       3.946   3.407  -1.122  0.00  0.00    +0.011 A 
ATOM     32  C   UNL     1       4.837   1.364  -0.327  0.00  0.00    +0.111 A 
ATOM     33  C   UNL     1       5.017   2.529  -1.046  0.00  0.00    +0.020 A 
ENDBRANCH   2  17
ENDBRANCH   7   2
BRANCH  11  16
ATOM      6  O   UNL     1       1.762  -4.140  -0.870  0.00  0.00    -0.249 OA
ATOM     16  C   UNL     1       2.195  -3.120  -0.350  0.00  0.00    +0.326 C 
BRANCH  16   5
ATOM      5  O   UNL     1       3.276  -2.398  -0.762  0.00  0.00    -0.467 OA
ATOM     29  C   UNL     1       3.949  -2.905  -1.919  0.00  0.00    +0.280 C 
ENDBRANCH  16   5
ENDBRANCH  11  16
BRANCH   8  18
ATOM     18  C   UNL     1      -2.751  -0.943  -1.702  0.00  0.00    +0.158 C 
BRANCH  18  21
ATOM      1 CL   UNL     1      -6.404   3.134   0.801  0.00  0.00    -0.084 Cl
ATOM     21  C   UNL     1      -3.667   0.079  -1.075  0.00  0.00    -0.028 A 
ATOM     26  C   UNL     1      -4.963  -0.279  -0.707  0.00  0.00    +0.007 A 
ATOM     27  C   UNL     1      -3.217   1.383  -0.864  0.00  0.00    +0.007 A 
ATOM     30  C   UNL     1      -5.810   0.666  -0.127  0.00  0.00    +0.020 A 
ATOM     31  C   UNL     1      -4.064   2.328  -0.285  0.00  0.00    +0.020 A 
ATOM     34  C   UNL     1      -5.360   1.969   0.083  0.00  0.00    +0.041 A 
ENDBRANCH  18  21
ENDBRANCH   8  18
TORSDOF 6
