REMARK  Name = 40777683
REMARK  9 active torsions:
REMARK  status: ('A' for Active; 'I' for Inactive)
REMARK    1  A    between atoms: O_5  and  C_32
REMARK    2  A    between atoms: O_5  and  C_33
REMARK    3  A    between atoms: N_6  and  C_11
REMARK    4  A    between atoms: N_7  and  C_19
REMARK    5  A    between atoms: C_9  and  C_12
REMARK    6  A    between atoms: C_15  and  C_17
REMARK    7  A    between atoms: C_16  and  C_18
REMARK    8  A    between atoms: C_20  and  C_21
REMARK    9  A    between atoms: C_26  and  C_29
REMARK                            x       y       z     vdW  Elec       q    Type
REMARK                         _______ _______ _______ _____ _____    ______ ____
ROOT
ATOM      9  C   UNL     1       0.607  -0.848   0.628  0.00  0.00    +0.047 C 
ATOM     10  C   UNL     1       1.202   0.417  -0.025  0.00  0.00    +0.039 C 
ATOM     11  C   UNL     1       2.154   1.018   1.016  0.00  0.00    +0.097 C 
ATOM     13  C   UNL     1       0.809  -0.580   2.091  0.00  0.00    -0.021 C 
ATOM     14  C   UNL     1       1.655   0.435   2.297  0.00  0.00    -0.009 C 
ENDROOT
BRANCH   9  12
ATOM      7  N   UNL     1      -2.976  -0.956  -0.128  0.00  0.00    -0.236 N 
ATOM      8  N   UNL     1      -2.666  -2.167  -0.620  0.00  0.00    -0.171 NA
ATOM     12  C   UNL     1      -0.826  -1.111   0.226  0.00  0.00    +0.003 A 
ATOM     15  C   UNL     1      -1.909  -0.282   0.391  0.00  0.00    +0.046 A 
ATOM     16  C   UNL     1      -1.351  -2.256  -0.402  0.00  0.00    +0.064 A 
ATOM     17  C   UNL     1      -2.012   1.066   0.985  0.00  0.00    +0.066 C 
ATOM     18  C   UNL     1      -0.629  -3.472  -0.816  0.00  0.00    +0.068 C 
BRANCH   7  19
ATOM     19  C   UNL     1      -4.295  -0.503  -0.181  0.00  0.00    +0.066 A 
ATOM     22  C   UNL     1      -5.305  -1.220   0.460  0.00  0.00    +0.028 A 
ATOM     23  C   UNL     1      -4.603   0.664  -0.880  0.00  0.00    +0.028 A 
ATOM     24  C   UNL     1      -6.624  -0.769   0.403  0.00  0.00    +0.014 A 
ATOM     25  C   UNL     1      -5.922   1.115  -0.937  0.00  0.00    +0.014 A 
ATOM     26  C   UNL     1      -6.932   0.398  -0.296  0.00  0.00    +0.055 A 
BRANCH  26  29
ATOM      1  F   UNL     1      -8.520   2.124   0.175  0.00  0.00    -0.166 F 
ATOM      2  F   UNL     1      -9.205   0.066   0.319  0.00  0.00    -0.166 F 
ATOM      3  F   UNL     1      -8.838   0.961  -1.628  0.00  0.00    -0.166 F 
ATOM     29  C   UNL     1      -8.343   0.879  -0.357  0.00  0.00    +0.417 C 
ENDBRANCH  26  29
ENDBRANCH   7  19
ENDBRANCH   9  12
BRANCH  11   6
ATOM      4  O   UNL     1       4.158   2.447  -0.464  0.00  0.00    -0.270 OA
ATOM      6  N   UNL     1       3.521   0.620   0.815  0.00  0.00    -0.305 N 
ATOM     20  C   UNL     1       4.424   1.379   0.081  0.00  0.00    +0.245 C 
ATOM     34  H   UNL     1       3.791  -0.299   1.153  0.00  0.00    +0.150 HD
BRANCH  20  21
ATOM     21  C   UNL     1       5.792   0.816  -0.056  0.00  0.00    +0.037 A 
ATOM     27  C   UNL     1       6.574   1.144  -1.164  0.00  0.00    +0.016 A 
ATOM     28  C   UNL     1       6.295  -0.042   0.922  0.00  0.00    +0.016 A 
ATOM     30  C   UNL     1       7.858   0.615  -1.294  0.00  0.00    +0.046 A 
ATOM     31  C   UNL     1       7.578  -0.572   0.793  0.00  0.00    +0.046 A 
ATOM     32  C   UNL     1       8.360  -0.244  -0.315  0.00  0.00    +0.120 A 
BRANCH  32   5
ATOM      5  O   UNL     1       9.613  -0.761  -0.441  0.00  0.00    -0.495 OA
ATOM     33  C   UNL     1      10.357  -0.383  -1.598  0.00  0.00    +0.277 C 
ENDBRANCH  32   5
ENDBRANCH  20  21
ENDBRANCH  11   6
TORSDOF 6
