REMARK  Name = 11884077
REMARK  8 active torsions:
REMARK  status: ('A' for Active; 'I' for Inactive)
REMARK    1  A    between atoms: S_1  and  N_10
REMARK    2  A    between atoms: S_1  and  C_19
REMARK    3  A    between atoms: O_5  and  C_15
REMARK    4  A    between atoms: O_5  and  C_18
REMARK    5  A    between atoms: O_9  and  C_28
REMARK    6  A    between atoms: O_9  and  C_29
REMARK    7  A    between atoms: N_10  and  C_14
REMARK    8  A    between atoms: N_11  and  C_23
REMARK                            x       y       z     vdW  Elec       q    Type
REMARK                         _______ _______ _______ _____ _____    ______ ____
ROOT
ATOM      3  O   UNL     1       0.702   0.239  -0.599  0.00  0.00    -0.369 OA
ATOM      4  O   UNL     1       2.016   2.960  -0.024  0.00  0.00    -0.368 OA
ATOM     12  C   UNL     1       1.964   1.737   0.740  0.00  0.00    +0.171 C 
ATOM     13  C   UNL     1       0.590   1.137   0.517  0.00  0.00    +0.191 C 
ATOM     14  C   UNL     1       2.906   0.719   0.146  0.00  0.00    +0.133 C 
ATOM     15  C   UNL     1      -0.246   2.348   0.179  0.00  0.00    +0.235 C 
ATOM     16  C   UNL     1       2.082   0.109  -0.971  0.00  0.00    +0.183 C 
ATOM     17  C   UNL     1       0.727   3.197  -0.608  0.00  0.00    +0.207 C 
ENDROOT
BRANCH  14  10
ATOM     10  N   UNL     1       3.232  -0.318   1.154  0.00  0.00    -0.182 NA
ATOM     30  H   UNL     1       2.573  -1.105   1.216  0.00  0.00    +0.149 HD
BRANCH  10   1
ATOM      1  S   UNL     1       4.882  -0.612   1.492  0.00  0.00    +0.065 S 
ATOM      6  O   UNL     1       4.997  -1.748   2.385  0.00  0.00    -0.153 OA
ATOM      7  O   UNL     1       5.530   0.651   1.790  0.00  0.00    -0.153 OA
BRANCH   1  19
ATOM      2  S   UNL     1       5.170  -2.671  -0.563  0.00  0.00    -0.077 S 
ATOM     19  C   UNL     1       5.654  -1.129  -0.042  0.00  0.00    +0.142 A 
ATOM     20  C   UNL     1       6.547  -0.523  -0.859  0.00  0.00    +0.036 A 
ATOM     21  C   UNL     1       6.862  -1.351  -1.975  0.00  0.00    +0.010 A 
ATOM     22  C   UNL     1       6.183  -2.549  -1.938  0.00  0.00    +0.047 A 
ENDBRANCH   1  19
ENDBRANCH  10   1
ENDBRANCH  14  10
BRANCH  15   5
ATOM      5  O   UNL     1      -1.405   2.043  -0.563  0.00  0.00    -0.442 OA
BRANCH   5  18
ATOM      8  O   UNL     1      -2.199   0.796   1.181  0.00  0.00    -0.226 OA
ATOM     11  N   UNL     1      -3.409   1.037  -0.808  0.00  0.00    -0.251 N 
ATOM     18  C   UNL     1      -2.343   1.237   0.048  0.00  0.00    +0.405 C 
ATOM     31  H   UNL     1      -3.346   1.491  -1.716  0.00  0.00    +0.158 HD
BRANCH  11  23
ATOM     23  C   UNL     1      -4.579   0.278  -0.579  0.00  0.00    +0.037 A 
ATOM     24  C   UNL     1      -5.542   0.199  -1.572  0.00  0.00    +0.027 A 
ATOM     25  C   UNL     1      -4.740  -0.372   0.635  0.00  0.00    +0.027 A 
ATOM     26  C   UNL     1      -6.697  -0.550  -1.345  0.00  0.00    +0.047 A 
ATOM     27  C   UNL     1      -5.895  -1.121   0.861  0.00  0.00    +0.047 A 
ATOM     28  C   UNL     1      -6.873  -1.210  -0.129  0.00  0.00    +0.120 A 
BRANCH  28   9
ATOM      9  O   UNL     1      -7.999  -1.942   0.091  0.00  0.00    -0.495 OA
ATOM     29  C   UNL     1      -8.115  -2.591   1.357  0.00  0.00    +0.277 C 
ENDBRANCH  28   9
ENDBRANCH  11  23
ENDBRANCH   5  18
ENDBRANCH  15   5
TORSDOF 7
