REMARK  Name = 45783588
REMARK  5 active torsions:
REMARK  status: ('A' for Active; 'I' for Inactive)
REMARK    1  A    between atoms: O_3  and  C_18
REMARK    2  A    between atoms: O_3  and  C_26
REMARK    3  A    between atoms: N_4  and  C_8
REMARK    4  A    between atoms: C_9  and  C_17
REMARK    5  A    between atoms: C_24  and  C_25
REMARK                            x       y       z     vdW  Elec       q    Type
REMARK                         _______ _______ _______ _____ _____    ______ ____
ROOT
ATOM      2  O   UNL     1       2.028   1.658   1.921  0.00  0.00    -0.336 OA
ATOM      5  N   UNL     1       1.604   0.897  -0.142  0.00  0.00    -0.190 NA
ATOM      6  N   UNL     1       0.641   1.468   1.853  0.00  0.00    -0.056 NA
ATOM     17  C   UNL     1       2.517   1.298   0.706  0.00  0.00    +0.245 A 
ATOM     24  C   UNL     1       0.470   1.018   0.607  0.00  0.00    +0.204 A 
ENDROOT
BRANCH  24  25
ATOM      7  N   UNL     1      -3.208   0.511   0.413  0.00  0.00    -0.221 NA
ATOM     25  C   UNL     1      -0.820   0.683   0.079  0.00  0.00    +0.041 A 
ATOM     26  C   UNL     1      -3.306   0.062  -0.858  0.00  0.00    +0.215 A 
ATOM     27  C   UNL     1      -0.962   0.219  -1.224  0.00  0.00    +0.018 A 
ATOM     28  C   UNL     1      -2.225  -0.100  -1.709  0.00  0.00    +0.068 A 
ATOM     29  C   UNL     1      -1.964   0.810   0.850  0.00  0.00    +0.126 A 
BRANCH  26   3
ATOM      3  O   UNL     1      -4.561  -0.245  -1.313  0.00  0.00    -0.473 OA
BRANCH   3  18
ATOM     18  C   UNL     1      -5.636  -0.060  -0.398  0.00  0.00    +0.175 C 
ATOM     19  C   UNL     1      -6.901   0.326  -1.163  0.00  0.00    +0.044 C 
ATOM     20  C   UNL     1      -5.840  -1.335   0.419  0.00  0.00    +0.044 C 
ATOM     21  C   UNL     1      -8.106   0.441  -0.235  0.00  0.00    +0.004 C 
ATOM     22  C   UNL     1      -7.045  -1.221   1.347  0.00  0.00    +0.004 C 
ATOM     23  C   UNL     1      -8.308  -0.833   0.582  0.00  0.00    +0.000 C 
ENDBRANCH   3  18
ENDBRANCH  26   3
ENDBRANCH  24  25
BRANCH  17   9
ATOM      4  N   UNL     1       4.538   0.464  -0.482  0.00  0.00    -0.288 NA
ATOM      9  C   UNL     1       4.016   1.413   0.521  0.00  0.00    +0.146 C 
ATOM     10  C   UNL     1       5.720   1.094  -1.071  0.00  0.00    +0.085 C 
ATOM     11  C   UNL     1       4.447   2.800   0.009  0.00  0.00    +0.030 C 
ATOM     12  C   UNL     1       5.256   2.525  -1.251  0.00  0.00    +0.017 C 
BRANCH   4   8
ATOM      1  O   UNL     1       4.363  -3.694   0.074  0.00  0.00    -0.380 OA
ATOM      8  C   UNL     1       4.837  -0.854   0.073  0.00  0.00    +0.062 C 
ATOM     13  C   UNL     1       5.418  -1.784  -0.996  0.00  0.00    +0.047 C 
ATOM     14  C   UNL     1       3.574  -1.475   0.678  0.00  0.00    +0.047 C 
ATOM     15  C   UNL     1       5.598  -3.190  -0.435  0.00  0.00    +0.161 C 
ATOM     16  C   UNL     1       3.856  -2.899   1.146  0.00  0.00    +0.161 C 
ENDBRANCH   4   8
ENDBRANCH  17   9
TORSDOF 5
