REMARK  Name = 11941637
REMARK  8 active torsions:
REMARK  status: ('A' for Active; 'I' for Inactive)
REMARK    1  A    between atoms: N_4  and  C_11
REMARK    2  A    between atoms: N_5  and  C_12
REMARK    3  A    between atoms: N_7  and  C_24
REMARK    4  A    between atoms: C_17  and  C_18
REMARK    5  A    between atoms: C_17  and  C_20
REMARK    6  A    between atoms: C_17  and  C_21
REMARK    7  A    between atoms: C_17  and  C_22
REMARK    8  A    between atoms: C_24  and  C_25
REMARK                            x       y       z     vdW  Elec       q    Type
REMARK                         _______ _______ _______ _____ _____    ______ ____
ROOT
ATOM      1  O   UNL     1      -1.639   2.640  -0.295  0.00  0.00    -0.370 OA
ATOM      2  O   UNL     1      -0.700   0.716   1.974  0.00  0.00    -0.370 OA
ATOM      9  C   UNL     1      -0.465   0.754   0.557  0.00  0.00    +0.171 C 
ATOM     10  C   UNL     1      -1.749   1.220  -0.100  0.00  0.00    +0.171 C 
ATOM     11  C   UNL     1       0.536   1.834   0.221  0.00  0.00    +0.130 C 
ATOM     12  C   UNL     1      -2.819   0.913   0.923  0.00  0.00    +0.131 C 
ATOM     13  C   UNL     1      -0.335   3.074   0.119  0.00  0.00    +0.185 C 
ATOM     14  C   UNL     1      -2.068   1.066   2.234  0.00  0.00    +0.185 C 
ENDROOT
BRANCH  11   4
ATOM      4  N   UNL     1       1.158   1.553  -1.054  0.00  0.00    -0.306 N 
ATOM      6  N   UNL     1       2.773   0.156  -0.082  0.00  0.00    -0.219 NA
ATOM      8  N   UNL     1       2.744   0.546  -2.460  0.00  0.00    -0.223 NA
ATOM     15  C   UNL     1       2.258   0.727  -1.203  0.00  0.00    +0.216 A 
ATOM     18  C   UNL     1       3.844  -0.644  -0.264  0.00  0.00    +0.052 A 
ATOM     19  C   UNL     1       4.414  -0.894  -1.496  0.00  0.00    +0.043 A 
ATOM     23  C   UNL     1       3.817  -0.265  -2.569  0.00  0.00    +0.116 A 
ATOM     26  H   UNL     1       0.751   1.932  -1.902  0.00  0.00    +0.149 HD
BRANCH  18  17
ATOM     17  C   UNL     1       4.423  -1.279   0.956  0.00  0.00    +0.005 C 
ATOM     20  C   UNL     1       5.910  -0.857   1.162  0.00  0.00    +0.017 C 
ATOM     21  C   UNL     1       4.384  -2.835   0.855  0.00  0.00    +0.017 C 
ATOM     22  C   UNL     1       3.701  -0.931   2.300  0.00  0.00    +0.017 C 
ENDBRANCH  18  17
ENDBRANCH  11   4
BRANCH  12   5
ATOM      3  O   UNL     1      -5.152   0.098  -0.567  0.00  0.00    -0.253 OA
ATOM      5  N   UNL     1      -3.324  -0.430   0.763  0.00  0.00    -0.292 N 
ATOM      7  N   UNL     1      -4.725  -2.102   0.033  0.00  0.00    -0.300 N 
ATOM     16  C   UNL     1      -4.464  -0.734   0.022  0.00  0.00    +0.300 C 
ATOM     27  H   UNL     1      -2.788  -1.198   1.156  0.00  0.00    +0.151 HD
ATOM     28  H   UNL     1      -4.102  -2.716   0.548  0.00  0.00    +0.150 HD
BRANCH   7  24
ATOM     24  C   UNL     1      -5.849  -2.689  -0.657  0.00  0.00    +0.102 C 
ATOM     25  C   UNL     1      -6.674  -1.638  -1.370  0.00  0.00    +0.024 C 
ENDBRANCH   7  24
ENDBRANCH  12   5
TORSDOF 4
