REMARK  Name = 11887294
REMARK  8 active torsions:
REMARK  status: ('A' for Active; 'I' for Inactive)
REMARK    1  A    between atoms: O_4  and  C_24
REMARK    2  A    between atoms: O_4  and  C_32
REMARK    3  A    between atoms: O_5  and  C_31
REMARK    4  A    between atoms: O_5  and  C_33
REMARK    5  A    between atoms: N_6  and  C_14
REMARK    6  A    between atoms: N_7  and  C_15
REMARK    7  A    between atoms: N_11  and  C_23
REMARK    8  A    between atoms: C_18  and  C_20
REMARK                            x       y       z     vdW  Elec       q    Type
REMARK                         _______ _______ _______ _____ _____    ______ ____
ROOT
ATOM      1  O   UNL     1       2.110   3.030   0.919  0.00  0.00    -0.370 OA
ATOM      2  O   UNL     1       2.836   0.178   2.030  0.00  0.00    -0.370 OA
ATOM     12  C   UNL     1       2.819   0.762   0.715  0.00  0.00    +0.176 C 
ATOM     13  C   UNL     1       1.630   1.702   0.658  0.00  0.00    +0.171 C 
ATOM     14  C   UNL     1       4.028   1.660   0.533  0.00  0.00    +0.168 C 
ATOM     15  C   UNL     1       0.733   1.238   1.783  0.00  0.00    +0.131 C 
ATOM     16  C   UNL     1       3.538   3.006   1.056  0.00  0.00    +0.190 C 
ATOM     17  C   UNL     1       1.730   0.689   2.787  0.00  0.00    +0.185 C 
ENDROOT
BRANCH  15   7
ATOM      3  O   UNL     1      -1.959   1.613   0.876  0.00  0.00    -0.252 OA
ATOM      7  N   UNL     1      -0.178   0.212   1.337  0.00  0.00    -0.292 N 
ATOM     11  N   UNL     1      -2.126  -0.704   0.536  0.00  0.00    -0.269 N 
ATOM     19  C   UNL     1      -1.483   0.480   0.907  0.00  0.00    +0.304 C 
ATOM     39  H   UNL     1       0.165  -0.742   1.269  0.00  0.00    +0.151 HD
ATOM     40  H   UNL     1      -1.588  -1.563   0.624  0.00  0.00    +0.156 HD
BRANCH  11  23
ATOM     23  C   UNL     1      -3.446  -0.860   0.050  0.00  0.00    +0.035 A 
ATOM     27  C   UNL     1      -3.924  -2.130  -0.272  0.00  0.00    +0.027 A 
ATOM     28  C   UNL     1      -4.268   0.256  -0.106  0.00  0.00    +0.027 A 
ATOM     29  C   UNL     1      -5.226  -2.284  -0.750  0.00  0.00    +0.048 A 
ATOM     30  C   UNL     1      -5.569   0.102  -0.584  0.00  0.00    +0.048 A 
ATOM     31  C   UNL     1      -6.048  -1.168  -0.906  0.00  0.00    +0.129 A 
BRANCH  31   5
ATOM      5  O   UNL     1      -7.317  -1.318  -1.374  0.00  0.00    -0.456 OA
BRANCH   5  33
ATOM     33  C   UNL     1      -8.328  -0.631  -0.723  0.00  0.00    +0.128 A 
ATOM     34  C   UNL     1      -8.379  -0.621   0.671  0.00  0.00    +0.046 A 
ATOM     35  C   UNL     1      -9.296   0.050  -1.461  0.00  0.00    +0.046 A 
ATOM     36  C   UNL     1      -9.398   0.070   1.327  0.00  0.00    +0.004 A 
ATOM     37  C   UNL     1     -10.315   0.742  -0.805  0.00  0.00    +0.004 A 
ATOM     38  C   UNL     1     -10.365   0.752   0.589  0.00  0.00    +0.000 A 
ENDBRANCH   5  33
ENDBRANCH  31   5
ENDBRANCH  11  23
ENDBRANCH  15   7
BRANCH  14   6
ATOM      6  N   UNL     1       4.516   1.672  -0.849  0.00  0.00    -0.217 N 
ATOM      8  N   UNL     1       4.026   2.544  -1.741  0.00  0.00    -0.043 NA
ATOM      9  N   UNL     1       5.573   1.252  -2.695  0.00  0.00    -0.108 NA
ATOM     10  N   UNL     1       4.677   2.283  -2.868  0.00  0.00    -0.023 NA
ATOM     18  C   UNL     1       5.457   0.890  -1.438  0.00  0.00    +0.182 A 
BRANCH  18  20
ATOM     20  C   UNL     1       6.187  -0.155  -0.767  0.00  0.00    +0.024 A 
ATOM     21  C   UNL     1       5.686  -1.457  -0.751  0.00  0.00    +0.057 A 
ATOM     22  C   UNL     1       7.396   0.135  -0.134  0.00  0.00    +0.012 A 
ATOM     24  C   UNL     1       6.394  -2.468  -0.102  0.00  0.00    +0.121 A 
ATOM     25  C   UNL     1       8.103  -0.877   0.515  0.00  0.00    +0.004 A 
ATOM     26  C   UNL     1       7.602  -2.179   0.531  0.00  0.00    +0.045 A 
BRANCH  24   4
ATOM      4  O   UNL     1       5.905  -3.739  -0.087  0.00  0.00    -0.495 OA
ATOM     32  C   UNL     1       6.680  -4.725   0.594  0.00  0.00    +0.277 C 
ENDBRANCH  24   4
ENDBRANCH  18  20
ENDBRANCH  14   6
TORSDOF 7
