REMARK  Name = 7674758
REMARK  6 active torsions:
REMARK  status: ('A' for Active; 'I' for Inactive)
REMARK    1  A    between atoms: O_5  and  C_23
REMARK    2  A    between atoms: O_6  and  C_32
REMARK    3  A    between atoms: O_6  and  C_33
REMARK    4  A    between atoms: N_7  and  C_16
REMARK    5  A    between atoms: C_16  and  C_21
REMARK    6  A    between atoms: C_19  and  C_22
REMARK                            x       y       z     vdW  Elec       q    Type
REMARK                         _______ _______ _______ _____ _____    ______ ____
ROOT
ATOM      4  O   UNL     1      -1.147   1.932  -1.325  0.00  0.00    -0.267 OA
ATOM      7  N   UNL     1       3.689   0.689  -0.853  0.00  0.00    -0.297 NA
ATOM      8  N   UNL     1       0.871   2.011  -0.157  0.00  0.00    -0.311 N 
ATOM      9  C   UNL     1       2.989   3.081  -1.125  0.00  0.00    +0.024 C 
ATOM     10  C   UNL     1       3.043   2.089   1.113  0.00  0.00    +0.050 C 
ATOM     11  C   UNL     1       3.331   3.367   0.331  0.00  0.00    +0.017 C 
ATOM     12  C   UNL     1       3.848   1.912  -1.650  0.00  0.00    +0.090 C 
ATOM     13  C   UNL     1       3.930   0.943   0.575  0.00  0.00    +0.094 C 
ATOM     14  C   UNL     1       1.484   2.802  -1.234  0.00  0.00    +0.130 C 
ATOM     15  C   UNL     1       1.575   1.715   1.012  0.00  0.00    +0.026 A 
ATOM     17  C   UNL     1       0.962   1.089   2.028  0.00  0.00    +0.022 A 
ATOM     18  C   UNL     1      -0.483   1.659  -0.322  0.00  0.00    +0.259 A 
ATOM     19  C   UNL     1      -1.135   0.927   0.820  0.00  0.00    +0.047 A 
ATOM     20  C   UNL     1      -0.412   0.685   1.924  0.00  0.00    +0.015 A 
ENDROOT
BRANCH  19  22
ATOM     22  C   UNL     1      -2.534   0.473   0.737  0.00  0.00    -0.012 A 
ATOM     25  C   UNL     1      -3.566   1.306   1.169  0.00  0.00    +0.012 A 
ATOM     26  C   UNL     1      -2.828  -0.793   0.227  0.00  0.00    +0.012 A 
ATOM     30  C   UNL     1      -4.891   0.875   1.091  0.00  0.00    +0.046 A 
ATOM     31  C   UNL     1      -4.152  -1.223   0.149  0.00  0.00    +0.046 A 
ATOM     32  C   UNL     1      -5.184  -0.390   0.581  0.00  0.00    +0.130 A 
BRANCH  32   6
ATOM      6  O   UNL     1      -6.476  -0.810   0.505  0.00  0.00    -0.406 OA
BRANCH   6  33
ATOM      1  F   UNL     1      -8.325  -0.860  -0.788  0.00  0.00    -0.133 F 
ATOM      2  F   UNL     1      -6.413  -0.414  -1.746  0.00  0.00    -0.133 F 
ATOM      3  F   UNL     1      -6.856  -2.459  -1.034  0.00  0.00    -0.133 F 
ATOM     33  C   UNL     1      -7.003  -1.142  -0.774  0.00  0.00    +0.575 C 
ENDBRANCH   6  33
ENDBRANCH  32   6
ENDBRANCH  19  22
BRANCH   7  16
ATOM     16  C   UNL     1       4.556  -0.377  -1.349  0.00  0.00    +0.123 C 
BRANCH  16  21
ATOM     21  C   UNL     1       4.316  -1.661  -0.605  0.00  0.00    +0.008 A 
ATOM     23  C   UNL     1       5.386  -2.426  -0.160  0.00  0.00    +0.121 A 
ATOM     24  C   UNL     1       3.007  -2.066  -0.371  0.00  0.00    +0.008 A 
ATOM     27  C   UNL     1       5.145  -3.615   0.529  0.00  0.00    +0.046 A 
ATOM     28  C   UNL     1       2.766  -3.255   0.318  0.00  0.00    +0.001 A 
ATOM     29  C   UNL     1       3.835  -4.029   0.768  0.00  0.00    +0.004 A 
BRANCH  23   5
ATOM      5  O   UNL     1       6.673  -2.037  -0.385  0.00  0.00    -0.506 OA
ATOM     34  H   UNL     1       7.276  -2.696  -0.002  0.00  0.00    +0.292 HD
ENDBRANCH  23   5
ENDBRANCH  16  21
ENDBRANCH   7  16
TORSDOF 6
