REMARK  Name = 75536762
REMARK  7 active torsions:
REMARK  status: ('A' for Active; 'I' for Inactive)
REMARK    1  A    between atoms: O_2  and  C_10
REMARK    2  A    between atoms: N_5  and  C_9
REMARK    3  A    between atoms: N_5  and  C_14
REMARK    4  A    between atoms: N_6  and  C_13
REMARK    5  A    between atoms: C_11  and  C_13
REMARK    6  A    between atoms: C_14  and  C_18
REMARK    7  A    between atoms: C_23  and  C_26
REMARK                            x       y       z     vdW  Elec       q    Type
REMARK                         _______ _______ _______ _____ _____    ______ ____
ROOT
ATOM      1  O   UNL     1      -0.937   0.696  -0.508  0.00  0.00    -0.371 OA
ATOM      9  C   UNL     1       1.025  -0.633  -0.340  0.00  0.00    +0.111 C 
ATOM     10  C   UNL     1       0.080  -1.000   0.789  0.00  0.00    +0.164 C 
ATOM     11  C   UNL     1      -1.246  -0.493   0.239  0.00  0.00    +0.165 C 
ATOM     12  C   UNL     1       0.479   0.722  -0.760  0.00  0.00    +0.181 C 
ENDROOT
BRANCH  10   2
ATOM      2  O   UNL     1       0.047  -2.392   1.043  0.00  0.00    -0.388 OA
ATOM     29  H   UNL     1      -0.191  -2.847   0.218  0.00  0.00    +0.210 HD
ENDBRANCH  10   2
BRANCH   9   5
ATOM      5  N   UNL     1       2.421  -0.581   0.061  0.00  0.00    -0.305 NA
ATOM     27  H   UNL     1       2.636  -1.404   0.624  0.00  0.00    +0.123 HD
BRANCH   5  14
ATOM     14  C   UNL     1       3.301  -0.560  -1.101  0.00  0.00    +0.116 C 
BRANCH  14  18
ATOM     18  C   UNL     1       4.752  -0.490  -0.704  0.00  0.00    -0.032 A 
ATOM     21  C   UNL     1       5.298   0.716  -0.263  0.00  0.00    +0.023 A 
ATOM     22  C   UNL     1       5.550  -1.631  -0.777  0.00  0.00    +0.005 A 
ATOM     23  C   UNL     1       6.642   0.779   0.106  0.00  0.00    +0.052 A 
ATOM     24  C   UNL     1       6.894  -1.568  -0.409  0.00  0.00    +0.002 A 
ATOM     25  C   UNL     1       7.440  -0.362   0.033  0.00  0.00    +0.019 A 
BRANCH  23  26
ATOM      8  N   UNL     1       7.656   3.015   0.927  0.00  0.00    -0.191 NA
ATOM     26  C   UNL     1       7.202   2.013   0.559  0.00  0.00    +0.099 C 
ENDBRANCH  23  26
ENDBRANCH  14  18
ENDBRANCH   5  14
ENDBRANCH   9   5
BRANCH  11  13
ATOM     13  C   UNL     1      -2.261  -0.169   1.321  0.00  0.00    +0.140 C 
BRANCH  13   6
ATOM      3  O   UNL     1      -8.219   1.212  -0.627  0.00  0.00    -0.377 OA
ATOM      4  O   UNL     1      -4.457  -1.767   0.582  0.00  0.00    -0.253 OA
ATOM      6  N   UNL     1      -3.502   0.312   0.756  0.00  0.00    -0.297 N 
ATOM      7  N   UNL     1      -5.681   0.072  -0.128  0.00  0.00    -0.281 N 
ATOM     15  C   UNL     1      -4.542  -0.545   0.417  0.00  0.00    +0.302 C 
ATOM     16  C   UNL     1      -5.807   1.489  -0.496  0.00  0.00    +0.137 C 
ATOM     17  C   UNL     1      -6.823  -0.757  -0.520  0.00  0.00    +0.137 C 
ATOM     19  C   UNL     1      -7.175   2.033  -0.100  0.00  0.00    +0.179 C 
ATOM     20  C   UNL     1      -8.134  -0.113  -0.100  0.00  0.00    +0.179 C 
ATOM     28  H   UNL     1      -3.562   1.309   0.605  0.00  0.00    +0.150 HD
ENDBRANCH  13   6
ENDBRANCH  11  13
TORSDOF 7
