REMARK  Name = 26744916
REMARK  5 active torsions:
REMARK  status: ('A' for Active; 'I' for Inactive)
REMARK    1  A    between atoms: N_3  and  C_13
REMARK    2  A    between atoms: C_8  and  C_14
REMARK    3  A    between atoms: C_13  and  C_15
REMARK    4  A    between atoms: C_17  and  C_20
REMARK    5  A    between atoms: C_20  and  C_23
REMARK                            x       y       z     vdW  Elec       q    Type
REMARK                         _______ _______ _______ _____ _____    ______ ____
ROOT
ATOM      3  N   UNL     1       1.772  -0.007   0.441  0.00  0.00    -0.281 NA
ATOM      4  N   UNL     1       5.366   0.119  -0.624  0.00  0.00    -0.347 N 
ATOM      5  N   UNL     1       4.886   2.200  -1.286  0.00  0.00    -0.240 NA
ATOM      8  C   UNL     1       1.678   1.478   0.657  0.00  0.00    +0.152 C 
ATOM      9  C   UNL     1       2.513   2.292  -0.395  0.00  0.00    +0.086 C 
ATOM     10  C   UNL     1       3.174  -0.505   0.540  0.00  0.00    +0.140 C 
ATOM     11  C   UNL     1       4.090   0.370  -0.218  0.00  0.00    +0.053 A 
ATOM     12  C   UNL     1       3.822   1.650  -0.628  0.00  0.00    +0.065 A 
ATOM     16  C   UNL     1       5.803   1.253  -1.264  0.00  0.00    +0.197 A 
ATOM     30  H   UNL     1       5.894  -0.731  -0.480  0.00  0.00    +0.167 HD
ENDROOT
BRANCH   8  14
ATOM      2  O   UNL     1      -0.184   2.617   1.778  0.00  0.00    -0.336 OA
ATOM      6  N   UNL     1      -0.635   1.988  -0.323  0.00  0.00    -0.194 NA
ATOM      7  N   UNL     1      -1.501   3.022   1.525  0.00  0.00    -0.061 NA
ATOM     14  C   UNL     1       0.252   2.017   0.640  0.00  0.00    +0.245 A 
ATOM     17  C   UNL     1      -1.693   2.615   0.266  0.00  0.00    +0.176 A 
BRANCH  17  20
ATOM     20  C   UNL     1      -2.964   2.831  -0.434  0.00  0.00    +0.114 C 
BRANCH  20  23
ATOM     23  C   UNL     1      -3.864   1.601  -0.519  0.00  0.00    -0.040 A 
ATOM     25  C   UNL     1      -3.618   0.622  -1.481  0.00  0.00    +0.004 A 
ATOM     26  C   UNL     1      -4.932   1.457   0.366  0.00  0.00    +0.004 A 
ATOM     27  C   UNL     1      -4.440  -0.502  -1.558  0.00  0.00    +0.000 A 
ATOM     28  C   UNL     1      -5.755   0.333   0.289  0.00  0.00    +0.000 A 
ATOM     29  C   UNL     1      -5.509  -0.646  -0.673  0.00  0.00    +0.000 A 
ENDBRANCH  20  23
ENDBRANCH  17  20
ENDBRANCH   8  14
BRANCH   3  13
ATOM     13  C   UNL     1       0.949  -0.763   1.394  0.00  0.00    +0.120 C 
BRANCH  13  15
ATOM      1  F   UNL     1      -0.483  -5.825  -0.625  0.00  0.00    -0.205 F 
ATOM     15  C   UNL     1       0.567  -2.116   0.855  0.00  0.00    -0.033 A 
ATOM     18  C   UNL     1      -0.610  -2.267   0.121  0.00  0.00    +0.008 A 
ATOM     19  C   UNL     1       1.389  -3.218   1.089  0.00  0.00    +0.008 A 
ATOM     21  C   UNL     1      -0.965  -3.520  -0.378  0.00  0.00    +0.038 A 
ATOM     22  C   UNL     1       1.034  -4.471   0.590  0.00  0.00    +0.038 A 
ATOM     24  C   UNL     1      -0.143  -4.622  -0.144  0.00  0.00    +0.123 A 
ENDBRANCH  13  15
ENDBRANCH   3  13
TORSDOF 5
