REMARK  Name = 25390023
REMARK  8 active torsions:
REMARK  status: ('A' for Active; 'I' for Inactive)
REMARK    1  A    between atoms: N_3  and  C_17
REMARK    2  A    between atoms: N_4  and  C_10
REMARK    3  A    between atoms: N_6  and  C_21
REMARK    4  A    between atoms: C_8  and  C_11
REMARK    5  A    between atoms: C_14  and  C_16
REMARK    6  A    between atoms: C_15  and  C_18
REMARK    7  A    between atoms: C_17  and  C_20
REMARK    8  A    between atoms: C_20  and  C_22
REMARK                            x       y       z     vdW  Elec       q    Type
REMARK                         _______ _______ _______ _____ _____    ______ ____
ROOT
ATOM      8  C   UNL     1       1.695   1.305   0.019  0.00  0.00    +0.047 C 
ATOM      9  C   UNL     1       0.817   0.076   0.332  0.00  0.00    +0.039 C 
ATOM     10  C   UNL     1      -0.170   0.530   1.414  0.00  0.00    +0.098 C 
ATOM     12  C   UNL     1       1.535   2.139   1.257  0.00  0.00    -0.021 C 
ATOM     13  C   UNL     1       0.515   1.715   2.012  0.00  0.00    -0.009 C 
ENDROOT
BRANCH   8  11
ATOM      3  N   UNL     1       5.171   0.189  -0.279  0.00  0.00    -0.267 N 
ATOM      5  N   UNL     1       5.083   0.779  -1.483  0.00  0.00    -0.176 NA
ATOM     11  C   UNL     1       3.124   0.948  -0.322  0.00  0.00    +0.003 A 
ATOM     14  C   UNL     1       4.024   0.261   0.456  0.00  0.00    +0.040 A 
ATOM     15  C   UNL     1       3.830   1.241  -1.503  0.00  0.00    +0.064 A 
ATOM     16  C   UNL     1       3.900  -0.322   1.805  0.00  0.00    +0.065 C 
ATOM     18  C   UNL     1       3.345   1.968  -2.689  0.00  0.00    +0.068 C 
BRANCH   3  17
ATOM     17  C   UNL     1       6.413  -0.440   0.110  0.00  0.00    +0.158 C 
BRANCH  17  20
ATOM     20  C   UNL     1       6.647  -1.793  -0.568  0.00  0.00    +0.141 C 
BRANCH  20  22
ATOM      7  N   UNL     1       4.737  -3.520  -0.028  0.00  0.00    -0.197 NA
ATOM     22  C   UNL     1       5.580  -2.758  -0.266  0.00  0.00    +0.064 C 
ENDBRANCH  20  22
ENDBRANCH  17  20
ENDBRANCH   3  17
ENDBRANCH   8  11
BRANCH  10   4
ATOM      2  O   UNL     1      -2.507  -1.097   1.099  0.00  0.00    -0.252 OA
ATOM      4  N   UNL     1      -1.438   0.941   0.874  0.00  0.00    -0.293 N 
ATOM      6  N   UNL     1      -3.629   0.755   0.195  0.00  0.00    -0.269 N 
ATOM     19  C   UNL     1      -2.539   0.081   0.752  0.00  0.00    +0.304 C 
ATOM     28  H   UNL     1      -1.534   1.888   0.517  0.00  0.00    +0.151 HD
ATOM     29  H   UNL     1      -3.489   1.735  -0.038  0.00  0.00    +0.156 HD
BRANCH   6  21
ATOM      1 CL   UNL     1      -9.021  -1.399  -0.989  0.00  0.00    -0.084 Cl
ATOM     21  C   UNL     1      -4.916   0.241  -0.088  0.00  0.00    +0.035 A 
ATOM     23  C   UNL     1      -5.890   1.067  -0.649  0.00  0.00    +0.025 A 
ATOM     24  C   UNL     1      -5.212  -1.093   0.196  0.00  0.00    +0.025 A 
ATOM     25  C   UNL     1      -7.159   0.560  -0.928  0.00  0.00    +0.022 A 
ATOM     26  C   UNL     1      -6.481  -1.600  -0.083  0.00  0.00    +0.022 A 
ATOM     27  C   UNL     1      -7.455  -0.774  -0.645  0.00  0.00    +0.041 A 
ENDBRANCH   6  21
ENDBRANCH  10   4
TORSDOF 6
