REMARK  Name = 75536263
REMARK  7 active torsions:
REMARK  status: ('A' for Active; 'I' for Inactive)
REMARK    1  A    between atoms: O_3  and  C_9
REMARK    2  A    between atoms: N_6  and  C_13
REMARK    3  A    between atoms: N_6  and  C_14
REMARK    4  A    between atoms: C_8  and  C_13
REMARK    5  A    between atoms: C_10  and  C_15
REMARK    6  A    between atoms: C_15  and  C_20
REMARK    7  A    between atoms: C_22  and  C_23
REMARK                            x       y       z     vdW  Elec       q    Type
REMARK                         _______ _______ _______ _____ _____    ______ ____
ROOT
ATOM      2  O   UNL     1       2.658  -1.138   0.848  0.00  0.00    -0.369 OA
ATOM      8  C   UNL     1       3.526  -0.038   1.151  0.00  0.00    +0.161 C 
ATOM      9  C   UNL     1       4.987  -0.374   0.824  0.00  0.00    +0.145 C 
ATOM     10  C   UNL     1       2.731  -1.619  -0.496  0.00  0.00    +0.125 C 
ATOM     11  C   UNL     1       5.150  -0.950  -0.580  0.00  0.00    +0.036 C 
ATOM     12  C   UNL     1       4.151  -2.076  -0.828  0.00  0.00    +0.034 C 
ENDROOT
BRANCH   9   3
ATOM      3  O   UNL     1       5.454  -1.354   1.754  0.00  0.00    -0.389 OA
ATOM     30  H   UNL     1       6.393  -1.518   1.562  0.00  0.00    +0.210 HD
ENDBRANCH   9   3
BRANCH   8  13
ATOM     13  C   UNL     1       3.044   1.245   0.478  0.00  0.00    +0.115 C 
BRANCH  13   6
ATOM      6  N   UNL     1       1.664   1.532   0.838  0.00  0.00    -0.311 NA
ATOM     29  H   UNL     1       1.134   0.660   0.830  0.00  0.00    +0.122 HD
BRANCH   6  14
ATOM      4  O   UNL     1      -0.627   4.748  -0.591  0.00  0.00    -0.380 OA
ATOM     14  C   UNL     1       1.058   2.462  -0.112  0.00  0.00    +0.058 C 
ATOM     16  C   UNL     1      -0.470   2.389  -0.028  0.00  0.00    +0.047 C 
ATOM     17  C   UNL     1       1.528   3.898   0.145  0.00  0.00    +0.047 C 
ATOM     18  C   UNL     1      -1.102   3.444  -0.929  0.00  0.00    +0.161 C 
ATOM     19  C   UNL     1       0.785   4.870  -0.765  0.00  0.00    +0.161 C 
ENDBRANCH   6  14
ENDBRANCH  13   6
ENDBRANCH   8  13
BRANCH  10  15
ATOM     15  C   UNL     1       1.745  -2.774  -0.624  0.00  0.00    +0.090 C 
BRANCH  15  20
ATOM      5  O   UNL     1      -1.482  -1.613  -1.734  0.00  0.00    -0.354 OA
ATOM      7  N   UNL     1      -0.181  -2.041  -1.970  0.00  0.00    -0.083 NA
ATOM     20  C   UNL     1       0.328  -2.284  -0.759  0.00  0.00    +0.087 A 
ATOM     21  C   UNL     1      -0.596  -2.030   0.269  0.00  0.00    +0.076 A 
ATOM     22  C   UNL     1      -1.717  -1.611  -0.397  0.00  0.00    +0.167 A 
BRANCH  22  23
ATOM      1  F   UNL     1      -6.806   0.015   1.154  0.00  0.00    -0.205 F 
ATOM     23  C   UNL     1      -3.028  -1.191   0.003  0.00  0.00    +0.020 A 
ATOM     24  C   UNL     1      -3.368  -1.157   1.355  0.00  0.00    +0.014 A 
ATOM     25  C   UNL     1      -3.965  -0.817  -0.961  0.00  0.00    +0.014 A 
ATOM     26  C   UNL     1      -4.644  -0.750   1.744  0.00  0.00    +0.039 A 
ATOM     27  C   UNL     1      -5.241  -0.410  -0.572  0.00  0.00    +0.039 A 
ATOM     28  C   UNL     1      -5.580  -0.376   0.781  0.00  0.00    +0.123 A 
ENDBRANCH  22  23
ENDBRANCH  15  20
ENDBRANCH  10  15
TORSDOF 7
