REMARK  Name = 45361509
REMARK  14 active torsions:
REMARK  status: ('A' for Active; 'I' for Inactive)
REMARK    1  A    between atoms: O_1  and  C_11
REMARK    2  A    between atoms: O_4  and  C_24
REMARK    3  A    between atoms: O_4  and  C_27
REMARK    4  A    between atoms: O_5  and  C_28
REMARK    5  A    between atoms: O_5  and  C_33
REMARK    6  A    between atoms: N_6  and  C_15
REMARK    7  A    between atoms: N_7  and  C_25
REMARK    8  A    between atoms: C_8  and  C_18
REMARK    9  A    between atoms: C_10  and  C_20
REMARK   10  A    between atoms: C_14  and  C_19
REMARK   11  A    between atoms: C_19  and  C_21
REMARK   12  A    between atoms: C_19  and  C_22
REMARK   13  A    between atoms: C_23  and  C_24
REMARK   14  A    between atoms: C_25  and  C_26
REMARK                            x       y       z     vdW  Elec       q    Type
REMARK                         _______ _______ _______ _____ _____    ______ ____
ROOT
ATOM      8  C   UNL     1      -1.046  -0.038   1.389  0.00  0.00    -0.027 C 
ATOM      9  C   UNL     1      -1.374  -0.651  -0.013  0.00  0.00    +0.028 C 
ATOM     10  C   UNL     1      -2.904  -0.988  -0.132  0.00  0.00    +0.012 C 
ATOM     11  C   UNL     1      -0.405  -1.818  -0.359  0.00  0.00    +0.122 C 
ATOM     12  C   UNL     1       0.441   0.386   1.431  0.00  0.00    +0.007 C 
ATOM     13  C   UNL     1      -1.903   1.233   1.596  0.00  0.00    +0.009 C 
ATOM     14  C   UNL     1       1.082  -1.418  -0.213  0.00  0.00    +0.029 C 
ATOM     15  C   UNL     1      -3.758   0.280   0.152  0.00  0.00    +0.076 C 
ATOM     16  C   UNL     1       1.395  -0.763   1.132  0.00  0.00    +0.007 C 
ATOM     17  C   UNL     1      -3.397   0.973   1.466  0.00  0.00    +0.023 C 
ATOM     18  C   UNL     1      -1.315  -1.029   2.549  0.00  0.00    +0.011 C 
ATOM     20  C   UNL     1      -3.302  -1.570  -1.499  0.00  0.00    +0.010 C 
ENDROOT
BRANCH  15   6
ATOM      3  O   UNL     1      -5.920   2.025  -0.652  0.00  0.00    -0.273 OA
ATOM      6  N   UNL     1      -5.175  -0.020   0.166  0.00  0.00    -0.310 N 
ATOM     23  C   UNL     1      -6.137   0.888  -0.241  0.00  0.00    +0.239 C 
ATOM     34  H   UNL     1      -5.470  -0.913   0.550  0.00  0.00    +0.149 HD
BRANCH  23  24
ATOM     24  C   UNL     1      -7.532   0.312  -0.124  0.00  0.00    +0.255 C 
BRANCH  24   4
ATOM      4  O   UNL     1      -8.496   1.248  -0.556  0.00  0.00    -0.374 OA
ATOM     27  C   UNL     1      -9.820   0.732  -0.457  0.00  0.00    +0.194 C 
ENDBRANCH  24   4
ENDBRANCH  23  24
ENDBRANCH  15   6
BRANCH  11   1
ATOM      1  O   UNL     1      -0.592  -2.206  -1.720  0.00  0.00    -0.391 OA
ATOM     35  H   UNL     1      -0.407  -1.435  -2.283  0.00  0.00    +0.210 HD
ENDBRANCH  11   1
BRANCH  14  19
ATOM     19  C   UNL     1       2.017  -2.614  -0.430  0.00  0.00    +0.077 C 
ATOM     21  C   UNL     1       1.711  -3.711   0.584  0.00  0.00    +0.017 C 
BRANCH  19  22
ATOM      2  O   UNL     1       4.263  -2.631   0.477  0.00  0.00    -0.276 OA
ATOM      7  N   UNL     1       3.781  -1.176  -1.264  0.00  0.00    -0.311 N 
ATOM     22  C   UNL     1       3.471  -2.162  -0.338  0.00  0.00    +0.216 C 
ATOM     36  H   UNL     1       3.084  -0.878  -1.939  0.00  0.00    +0.149 HD
BRANCH   7  25
ATOM     25  C   UNL     1       5.096  -0.587  -1.368  0.00  0.00    +0.143 C 
BRANCH  25  26
ATOM     26  C   UNL     1       5.257   0.592  -0.452  0.00  0.00    +0.011 A 
ATOM     28  C   UNL     1       4.670   1.819  -0.759  0.00  0.00    +0.125 A 
ATOM     29  C   UNL     1       6.005   0.450   0.717  0.00  0.00    +0.009 A 
ATOM     30  C   UNL     1       4.831   2.905   0.102  0.00  0.00    +0.046 A 
ATOM     31  C   UNL     1       6.166   1.535   1.578  0.00  0.00    +0.001 A 
ATOM     32  C   UNL     1       5.579   2.763   1.271  0.00  0.00    +0.004 A 
BRANCH  28   5
ATOM      5  O   UNL     1       3.937   1.976  -1.897  0.00  0.00    -0.495 OA
ATOM     33  C   UNL     1       3.373   3.265  -2.132  0.00  0.00    +0.277 C 
ENDBRANCH  28   5
ENDBRANCH  25  26
ENDBRANCH   7  25
ENDBRANCH  19  22
ENDBRANCH  14  19
TORSDOF 9
