REMARK  Name = 45784418
REMARK  10 active torsions:
REMARK  status: ('A' for Active; 'I' for Inactive)
REMARK    1  A    between atoms: O_2  and  C_11
REMARK    2  A    between atoms: N_5  and  C_15
REMARK    3  A    between atoms: N_6  and  C_25
REMARK    4  A    between atoms: C_8  and  C_18
REMARK    5  A    between atoms: C_10  and  C_20
REMARK    6  A    between atoms: C_14  and  C_19
REMARK    7  A    between atoms: C_19  and  C_21
REMARK    8  A    between atoms: C_19  and  C_22
REMARK    9  A    between atoms: C_23  and  C_24
REMARK   10  A    between atoms: C_25  and  C_27
REMARK                            x       y       z     vdW  Elec       q    Type
REMARK                         _______ _______ _______ _____ _____    ______ ____
ROOT
ATOM      8  C   UNL     1      -0.013   0.136  -1.539  0.00  0.00    -0.027 C 
ATOM      9  C   UNL     1       0.204  -0.330  -0.061  0.00  0.00    +0.028 C 
ATOM     10  C   UNL     1       1.710  -0.700   0.193  0.00  0.00    +0.012 C 
ATOM     11  C   UNL     1      -0.829  -1.421   0.344  0.00  0.00    +0.122 C 
ATOM     12  C   UNL     1      -1.477   0.599  -1.724  0.00  0.00    +0.007 C 
ATOM     13  C   UNL     1       0.903   1.349  -1.825  0.00  0.00    +0.009 C 
ATOM     14  C   UNL     1      -2.287  -0.993   0.059  0.00  0.00    +0.029 C 
ATOM     15  C   UNL     1       2.628   0.502  -0.169  0.00  0.00    +0.076 C 
ATOM     16  C   UNL     1      -2.491  -0.480  -1.366  0.00  0.00    +0.007 C 
ATOM     17  C   UNL     1       2.376   1.058  -1.570  0.00  0.00    +0.023 C 
ATOM     18  C   UNL     1       0.289  -0.984  -2.566  0.00  0.00    +0.011 C 
ATOM     20  C   UNL     1       2.001  -1.141   1.637  0.00  0.00    +0.010 C 
ENDROOT
BRANCH  15   5
ATOM      4  O   UNL     1       4.770   2.261   0.580  0.00  0.00    -0.269 OA
ATOM      5  N   UNL     1       4.030   0.158  -0.058  0.00  0.00    -0.307 N 
ATOM     23  C   UNL     1       4.991   1.083   0.312  0.00  0.00    +0.263 C 
ATOM     34  H   UNL     1       4.319  -0.781  -0.317  0.00  0.00    +0.149 HD
BRANCH  23  24
ATOM      7  N   UNL     1       6.553  -0.722   0.026  0.00  0.00    -0.250 NA
ATOM     24  C   UNL     1       6.388   0.580   0.354  0.00  0.00    +0.125 A 
ATOM     26  C   UNL     1       7.425   1.426   0.714  0.00  0.00    +0.033 A 
ATOM     28  C   UNL     1       8.713   0.904   0.737  0.00  0.00    +0.004 A 
ATOM     29  C   UNL     1       7.820  -1.194   0.060  0.00  0.00    +0.111 A 
ATOM     31  C   UNL     1       8.923  -0.430   0.405  0.00  0.00    +0.020 A 
ENDBRANCH  23  24
ENDBRANCH  15   5
BRANCH  11   2
ATOM      2  O   UNL     1      -0.741  -1.664   1.748  0.00  0.00    -0.391 OA
ATOM     35  H   UNL     1      -0.933  -0.830   2.211  0.00  0.00    +0.210 HD
ENDBRANCH  11   2
BRANCH  14  19
ATOM     19  C   UNL     1      -3.279  -2.128   0.342  0.00  0.00    +0.077 C 
ATOM     21  C   UNL     1      -2.953  -3.338  -0.527  0.00  0.00    +0.017 C 
BRANCH  19  22
ATOM      3  O   UNL     1      -5.275  -1.755  -0.977  0.00  0.00    -0.276 OA
ATOM      6  N   UNL     1      -5.267  -1.072   1.239  0.00  0.00    -0.310 N 
ATOM     22  C   UNL     1      -4.706  -1.643   0.106  0.00  0.00    +0.216 C 
ATOM     36  H   UNL     1      -4.713  -0.998   2.088  0.00  0.00    +0.149 HD
BRANCH   6  25
ATOM     25  C   UNL     1      -6.609  -0.538   1.262  0.00  0.00    +0.146 C 
BRANCH  25  27
ATOM      1  S   UNL     1      -8.040   1.511   0.051  0.00  0.00    -0.100 S 
ATOM     27  C   UNL     1      -6.647   0.902   0.839  0.00  0.00    +0.007 A 
ATOM     30  C   UNL     1      -5.678   1.868   0.995  0.00  0.00    +0.013 A 
ATOM     32  C   UNL     1      -6.084   3.125   0.461  0.00  0.00    +0.008 A 
ATOM     33  C   UNL     1      -7.348   3.072  -0.083  0.00  0.00    +0.045 A 
ENDBRANCH  25  27
ENDBRANCH   6  25
ENDBRANCH  19  22
ENDBRANCH  14  19
TORSDOF 7
