REMARK  Name = 40481337
REMARK  6 active torsions:
REMARK  status: ('A' for Active; 'I' for Inactive)
REMARK    1  A    between atoms: O_3  and  C_11
REMARK    2  A    between atoms: O_3  and  C_15
REMARK    3  A    between atoms: N_4  and  C_10
REMARK    4  A    between atoms: C_14  and  C_16
REMARK    5  A    between atoms: C_15  and  C_17
REMARK    6  A    between atoms: C_24  and  C_28
REMARK                            x       y       z     vdW  Elec       q    Type
REMARK                         _______ _______ _______ _____ _____    ______ ____
ROOT
ATOM      4  N   UNL     1      -0.318   2.184  -0.211  0.00  0.00    -0.217 N 
ATOM      5  N   UNL     1       0.503   3.227  -0.023  0.00  0.00    -0.043 NA
ATOM      6  N   UNL     1      -1.551   3.728   0.684  0.00  0.00    -0.108 NA
ATOM      7  N   UNL     1      -0.257   4.168   0.524  0.00  0.00    -0.023 NA
ATOM     14  C   UNL     1      -1.566   2.498   0.223  0.00  0.00    +0.182 A 
ENDROOT
BRANCH   4  10
ATOM      1  O   UNL     1       2.577   0.835  -0.992  0.00  0.00    -0.369 OA
ATOM      2  O   UNL     1       0.623  -1.411  -0.221  0.00  0.00    -0.369 OA
ATOM      8  C   UNL     1       0.743  -0.044   0.231  0.00  0.00    +0.176 C 
ATOM      9  C   UNL     1       2.225   0.270   0.282  0.00  0.00    +0.180 C 
ATOM     10  C   UNL     1       0.194   0.896  -0.827  0.00  0.00    +0.168 C 
ATOM     11  C   UNL     1       2.845  -1.092   0.481  0.00  0.00    +0.175 C 
ATOM     12  C   UNL     1       1.387   1.039  -1.767  0.00  0.00    +0.190 C 
ATOM     13  C   UNL     1       1.936  -1.979  -0.339  0.00  0.00    +0.194 C 
BRANCH  11   3
ATOM      3  O   UNL     1       4.186  -1.168   0.054  0.00  0.00    -0.367 OA
BRANCH   3  15
ATOM     15  C   UNL     1       5.093  -0.723   1.060  0.00  0.00    +0.195 C 
BRANCH  15  17
ATOM     17  C   UNL     1       6.495  -0.832   0.539  0.00  0.00    -0.022 A 
ATOM     20  C   UNL     1       7.221  -2.008   0.728  0.00  0.00    +0.006 A 
ATOM     21  C   UNL     1       7.074   0.244  -0.135  0.00  0.00    +0.006 A 
ATOM     25  C   UNL     1       8.525  -2.109   0.243  0.00  0.00    +0.000 A 
ATOM     26  C   UNL     1       8.378   0.143  -0.619  0.00  0.00    +0.000 A 
ATOM     27  C   UNL     1       9.103  -1.033  -0.430  0.00  0.00    +0.000 A 
ENDBRANCH  15  17
ENDBRANCH   3  15
ENDBRANCH  11   3
ENDBRANCH   4  10
BRANCH  14  16
ATOM     16  C   UNL     1      -2.696   1.606   0.171  0.00  0.00    +0.021 A 
ATOM     18  C   UNL     1      -3.521   1.590  -0.954  0.00  0.00    +0.012 A 
ATOM     19  C   UNL     1      -2.966   0.758   1.245  0.00  0.00    +0.012 A 
ATOM     22  C   UNL     1      -4.615   0.727  -1.005  0.00  0.00    +0.009 A 
ATOM     23  C   UNL     1      -4.060  -0.105   1.194  0.00  0.00    +0.009 A 
ATOM     24  C   UNL     1      -4.884  -0.121   0.070  0.00  0.00    -0.018 A 
BRANCH  24  28
ATOM     28  C   UNL     1      -6.019  -1.018   0.017  0.00  0.00    -0.018 A 
ATOM     29  C   UNL     1      -7.262  -0.597   0.489  0.00  0.00    +0.008 A 
ATOM     30  C   UNL     1      -5.869  -2.302  -0.507  0.00  0.00    +0.008 A 
ATOM     31  C   UNL     1      -8.356  -1.461   0.438  0.00  0.00    +0.001 A 
ATOM     32  C   UNL     1      -6.963  -3.166  -0.558  0.00  0.00    +0.001 A 
ATOM     33  C   UNL     1      -8.207  -2.745  -0.085  0.00  0.00    +0.000 A 
ENDBRANCH  24  28
ENDBRANCH  14  16
TORSDOF 6
