REMARK  Name = 26742949
REMARK  8 active torsions:
REMARK  status: ('A' for Active; 'I' for Inactive)
REMARK    1  A    between atoms: C_8  and  C_14
REMARK    2  A    between atoms: C_9  and  C_12
REMARK    3  A    between atoms: C_12  and  C_15
REMARK    4  A    between atoms: C_14  and  C_16
REMARK    5  A    between atoms: C_18  and  C_19
REMARK    6  A    between atoms: C_19  and  C_20
REMARK    7  A    between atoms: C_20  and  C_22
REMARK    8  A    between atoms: C_22  and  C_23
REMARK                            x       y       z     vdW  Elec       q    Type
REMARK                         _______ _______ _______ _____ _____    ______ ____
ROOT
ATOM      4  N   UNL     1      -0.702   3.037   0.651  0.00  0.00    -0.316 NA
ATOM      8  C   UNL     1       0.953   1.006  -0.706  0.00  0.00    +0.004 C 
ATOM      9  C   UNL     1      -0.521   0.754  -0.309  0.00  0.00    +0.012 C 
ATOM     10  C   UNL     1       1.179   2.519  -0.864  0.00  0.00    +0.019 C 
ATOM     11  C   UNL     1      -0.940   1.614   0.895  0.00  0.00    +0.085 C 
ATOM     13  C   UNL     1       0.702   3.310   0.354  0.00  0.00    +0.081 C 
ATOM     26  H   UNL     1      -0.983   3.572   1.472  0.00  0.00    +0.122 HD
ENDROOT
BRANCH   9  12
ATOM     12  C   UNL     1      -0.828  -0.721  -0.049  0.00  0.00    +0.064 C 
BRANCH  12  15
ATOM      2  O   UNL     1      -4.146  -1.556  -1.171  0.00  0.00    -0.359 OA
ATOM      5  N   UNL     1      -2.786  -1.367  -1.386  0.00  0.00    -0.083 NA
ATOM     15  C   UNL     1      -2.294  -1.009  -0.196  0.00  0.00    +0.084 A 
ATOM     17  C   UNL     1      -3.287  -0.955   0.797  0.00  0.00    +0.071 A 
ATOM     18  C   UNL     1      -4.432  -1.307   0.133  0.00  0.00    +0.138 A 
BRANCH  18  19
ATOM     19  C   UNL     1      -5.835  -1.460   0.536  0.00  0.00    +0.077 C 
BRANCH  19  20
ATOM     20  C   UNL     1      -6.723  -0.272   0.103  0.00  0.00    +0.007 C 
BRANCH  20  22
ATOM     22  C   UNL     1      -8.171  -0.420   0.568  0.00  0.00    -0.003 C 
ATOM     23  C   UNL     1      -9.012   0.780   0.163  0.00  0.00    +0.004 C 
ENDBRANCH  20  22
ENDBRANCH  19  20
ENDBRANCH  18  19
ENDBRANCH  12  15
ENDBRANCH   9  12
BRANCH   8  14
ATOM     14  C   UNL     1       1.973   0.401   0.266  0.00  0.00    +0.100 C 
BRANCH  14  16
ATOM      1  S   UNL     1       6.420  -1.284   1.712  0.00  0.00    -0.061 S 
ATOM      3  O   UNL     1       3.563   0.506  -1.540  0.00  0.00    -0.275 OA
ATOM      6  N   UNL     1       4.230  -0.320   0.555  0.00  0.00    -0.265 N 
ATOM      7  N   UNL     1       6.297  -0.501  -0.748  0.00  0.00    -0.233 NA
ATOM     16  C   UNL     1       3.337   0.213  -0.370  0.00  0.00    +0.219 C 
ATOM     21  C   UNL     1       5.594  -0.640   0.353  0.00  0.00    +0.164 A 
ATOM     24  C   UNL     1       7.844  -1.395   0.763  0.00  0.00    +0.068 A 
ATOM     25  C   UNL     1       7.587  -0.934  -0.511  0.00  0.00    +0.120 A 
ATOM     27  H   UNL     1       3.898  -0.513   1.497  0.00  0.00    +0.157 HD
ENDBRANCH  14  16
ENDBRANCH   8  14
TORSDOF 7
