REMARK  Name = 11882077
REMARK  9 active torsions:
REMARK  status: ('A' for Active; 'I' for Inactive)
REMARK    1  A    between atoms: N_6  and  C_12
REMARK    2  A    between atoms: N_7  and  C_18
REMARK    3  A    between atoms: N_8  and  C_25
REMARK    4  A    between atoms: C_13  and  C_16
REMARK    5  A    between atoms: C_17  and  C_20
REMARK    6  A    between atoms: C_18  and  C_21
REMARK    7  A    between atoms: C_18  and  C_22
REMARK    8  A    between atoms: C_21  and  C_23
REMARK    9  A    between atoms: C_25  and  C_30
REMARK                            x       y       z     vdW  Elec       q    Type
REMARK                         _______ _______ _______ _____ _____    ______ ____
ROOT
ATOM      2  O   UNL     1      -2.622   1.060   1.593  0.00  0.00    -0.268 OA
ATOM      5  N   UNL     1      -2.061   0.191  -0.494  0.00  0.00    -0.283 N 
ATOM     12  C   UNL     1      -0.211  -1.052  -1.304  0.00  0.00    +0.105 C 
ATOM     13  C   UNL     1      -0.668  -0.116  -0.185  0.00  0.00    +0.182 C 
ATOM     14  C   UNL     1      -1.096  -0.653  -2.486  0.00  0.00    +0.043 C 
ATOM     15  C   UNL     1      -2.419  -0.267  -1.836  0.00  0.00    +0.111 C 
ATOM     17  C   UNL     1      -2.936   0.678   0.468  0.00  0.00    +0.267 C 
ENDROOT
BRANCH  12   6
ATOM      3  O   UNL     1       1.699  -2.840  -0.086  0.00  0.00    -0.253 OA
ATOM      6  N   UNL     1      -0.420  -2.434  -0.945  0.00  0.00    -0.294 N 
ATOM      8  N   UNL     1       0.096  -4.517  -0.118  0.00  0.00    -0.296 N 
ATOM     19  C   UNL     1       0.564  -3.228  -0.358  0.00  0.00    +0.300 C 
ATOM     35  H   UNL     1      -1.346  -2.833  -1.067  0.00  0.00    +0.151 HD
ATOM     37  H   UNL     1      -0.864  -4.741  -0.359  0.00  0.00    +0.151 HD
BRANCH   8  25
ATOM     25  C   UNL     1       0.912  -5.545   0.484  0.00  0.00    +0.132 C 
BRANCH  25  30
ATOM     30  C   UNL     1       0.746  -5.494   1.966  0.00  0.00    -0.016 C 
ATOM     34  C   UNL     1       1.755  -5.303   2.824  0.00  0.00    +0.005 C 
ENDBRANCH  25  30
ENDBRANCH   8  25
ENDBRANCH  12   6
BRANCH  17  20
ATOM      9  N   UNL     1      -4.948  -0.436  -0.208  0.00  0.00    -0.247 NA
ATOM     11  N   UNL     1      -6.360   1.987  -0.218  0.00  0.00    -0.259 NA
ATOM     20  C   UNL     1      -4.360   0.733   0.112  0.00  0.00    +0.144 A 
ATOM     24  C   UNL     1      -5.053   1.923   0.107  0.00  0.00    +0.143 A 
ATOM     28  C   UNL     1      -6.254  -0.373  -0.533  0.00  0.00    +0.131 A 
ATOM     29  C   UNL     1      -6.948   0.817  -0.538  0.00  0.00    +0.130 A 
ENDBRANCH  17  20
BRANCH  13  16
ATOM      1  O   UNL     1      -0.270   2.108  -0.960  0.00  0.00    -0.274 OA
ATOM      7  N   UNL     1       1.151   1.202   0.647  0.00  0.00    -0.302 N 
ATOM     16  C   UNL     1       0.070   1.189  -0.218  0.00  0.00    +0.236 C 
ATOM     36  H   UNL     1       1.306   0.401   1.253  0.00  0.00    +0.150 HD
BRANCH   7  18
ATOM     18  C   UNL     1       2.038   2.334   0.787  0.00  0.00    +0.163 C 
BRANCH  18  22
ATOM      4  O   UNL     1       0.791   2.870   2.802  0.00  0.00    -0.274 OA
ATOM     10  N   UNL     1       1.685   4.593   1.573  0.00  0.00    -0.328 N 
ATOM     22  C   UNL     1       1.420   3.262   1.823  0.00  0.00    +0.231 C 
ATOM     38  H   UNL     1       1.343   5.317   2.196  0.00  0.00    +0.145 HD
ATOM     39  H   UNL     1       2.228   4.900   0.772  0.00  0.00    +0.145 HD
ENDBRANCH  18  22
BRANCH  18  21
ATOM     21  C   UNL     1       3.448   1.916   1.218  0.00  0.00    +0.067 C 
BRANCH  21  23
ATOM     23  C   UNL     1       4.276   1.387   0.072  0.00  0.00    -0.045 A 
ATOM     26  C   UNL     1       4.258   0.026  -0.232  0.00  0.00    +0.004 A 
ATOM     27  C   UNL     1       5.060   2.260  -0.683  0.00  0.00    +0.004 A 
ATOM     31  C   UNL     1       5.024  -0.462  -1.290  0.00  0.00    +0.000 A 
ATOM     32  C   UNL     1       5.825   1.772  -1.742  0.00  0.00    +0.000 A 
ATOM     33  C   UNL     1       5.807   0.410  -2.046  0.00  0.00    +0.000 A 
ENDBRANCH  21  23
ENDBRANCH  18  21
ENDBRANCH   7  18
ENDBRANCH  13  16
TORSDOF 9
