REMARK  Name = 7127920
REMARK  11 active torsions:
REMARK  status: ('A' for Active; 'I' for Inactive)
REMARK    1  A    between atoms: O_2  and  C_12
REMARK    2  A    between atoms: O_3  and  C_13
REMARK    3  A    between atoms: O_7  and  C_29
REMARK    4  A    between atoms: O_7  and  C_35
REMARK    5  A    between atoms: N_8  and  C_14
REMARK    6  A    between atoms: N_9  and  C_19
REMARK    7  A    between atoms: N_10  and  C_26
REMARK    8  A    between atoms: C_16  and  C_18
REMARK    9  A    between atoms: C_19  and  C_21
REMARK   10  A    between atoms: C_19  and  C_23
REMARK   11  A    between atoms: C_21  and  C_22
REMARK                            x       y       z     vdW  Elec       q    Type
REMARK                         _______ _______ _______ _____ _____    ______ ____
ROOT
ATOM     12  C   UNL     1      -0.009   3.961  -0.134  0.00  0.00    +0.167 C 
ATOM     13  C   UNL     1       1.472   4.248  -0.413  0.00  0.00    +0.149 C 
ATOM     14  C   UNL     1      -0.366   2.493  -0.435  0.00  0.00    +0.129 C 
ATOM     15  C   UNL     1       2.402   3.304   0.368  0.00  0.00    +0.074 C 
ATOM     16  C   UNL     1       1.889   1.894   0.447  0.00  0.00    +0.015 C 
ATOM     17  C   UNL     1       0.655   1.515   0.083  0.00  0.00    +0.006 C 
ENDROOT
BRANCH  14   8
ATOM      5  O   UNL     1      -2.200   0.582  -1.524  0.00  0.00    -0.252 OA
ATOM      8  N   UNL     1      -1.660   2.140   0.096  0.00  0.00    -0.290 N 
ATOM     10  N   UNL     1      -3.682   1.060   0.233  0.00  0.00    -0.268 N 
ATOM     20  C   UNL     1      -2.499   1.192  -0.500  0.00  0.00    +0.304 C 
ATOM     36  H   UNL     1      -1.940   2.540   0.987  0.00  0.00    +0.151 HD
ATOM     40  H   UNL     1      -3.775   1.642   1.062  0.00  0.00    +0.156 HD
BRANCH  10  26
ATOM      1 BR   UNL     1      -6.027   1.298   2.330  0.00  0.00    -0.048 Br
ATOM     26  C   UNL     1      -4.780   0.210  -0.036  0.00  0.00    +0.049 A 
ATOM     30  C   UNL     1      -5.891   0.194   0.792  0.00  0.00    +0.039 A 
ATOM     31  C   UNL     1      -4.707  -0.606  -1.155  0.00  0.00    +0.024 A 
ATOM     32  C   UNL     1      -6.955  -0.658   0.495  0.00  0.00    +0.017 A 
ATOM     33  C   UNL     1      -5.770  -1.458  -1.452  0.00  0.00    +0.002 A 
ATOM     34  C   UNL     1      -6.894  -1.485  -0.627  0.00  0.00    +0.001 A 
ENDBRANCH  10  26
ENDBRANCH  14   8
BRANCH  16  18
ATOM      4  O   UNL     1       2.855   0.569   2.129  0.00  0.00    -0.271 OA
ATOM      9  N   UNL     1       3.547   0.274  -0.077  0.00  0.00    -0.300 N 
ATOM     18  C   UNL     1       2.800   0.854   0.933  0.00  0.00    +0.241 C 
ATOM     39  H   UNL     1       3.438   0.611  -1.030  0.00  0.00    +0.150 HD
BRANCH   9  19
ATOM     19  C   UNL     1       4.516  -0.773   0.158  0.00  0.00    +0.163 C 
BRANCH  19  23
ATOM      6  O   UNL     1       6.054   0.561  -1.168  0.00  0.00    -0.274 OA
ATOM     11  N   UNL     1       6.889  -0.649   0.597  0.00  0.00    -0.328 N 
ATOM     23  C   UNL     1       5.877  -0.220  -0.236  0.00  0.00    +0.231 C 
ATOM     41  H   UNL     1       6.729  -1.292   1.366  0.00  0.00    +0.145 HD
ATOM     42  H   UNL     1       7.846  -0.342   0.454  0.00  0.00    +0.145 HD
ENDBRANCH  19  23
BRANCH  19  21
ATOM     21  C   UNL     1       4.202  -2.042  -0.643  0.00  0.00    +0.067 C 
BRANCH  21  22
ATOM     22  C   UNL     1       2.848  -2.621  -0.314  0.00  0.00    -0.045 A 
ATOM     24  C   UNL     1       2.737  -3.554   0.705  0.00  0.00    +0.007 A 
ATOM     25  C   UNL     1       1.740  -2.209  -1.037  0.00  0.00    +0.007 A 
ATOM     27  C   UNL     1       1.484  -4.089   1.008  0.00  0.00    +0.046 A 
ATOM     28  C   UNL     1       0.488  -2.744  -0.734  0.00  0.00    +0.046 A 
ATOM     29  C   UNL     1       0.360  -3.684   0.288  0.00  0.00    +0.120 A 
BRANCH  29   7
ATOM      7  O   UNL     1      -0.861  -4.206   0.586  0.00  0.00    -0.495 OA
ATOM     35  C   UNL     1      -1.969  -3.748  -0.189  0.00  0.00    +0.277 C 
ENDBRANCH  29   7
ENDBRANCH  21  22
ENDBRANCH  19  21
ENDBRANCH   9  19
ENDBRANCH  16  18
BRANCH  12   2
ATOM      2  O   UNL     1      -0.282   4.250   1.239  0.00  0.00    -0.387 OA
ATOM     37  H   UNL     1       0.171   3.594   1.795  0.00  0.00    +0.210 HD
ENDBRANCH  12   2
BRANCH  13   3
ATOM      3  O   UNL     1       1.736   4.151  -1.811  0.00  0.00    -0.389 OA
ATOM     38  H   UNL     1       2.670   4.383  -1.950  0.00  0.00    +0.210 HD
ENDBRANCH  13   3
TORSDOF 10
