REMARK  Name = 40777764
REMARK  9 active torsions:
REMARK  status: ('A' for Active; 'I' for Inactive)
REMARK    1  A    between atoms: O_5  and  C_21
REMARK    2  A    between atoms: O_5  and  C_28
REMARK    3  A    between atoms: N_6  and  C_11
REMARK    4  A    between atoms: N_7  and  C_19
REMARK    5  A    between atoms: C_9  and  C_12
REMARK    6  A    between atoms: C_15  and  C_17
REMARK    7  A    between atoms: C_16  and  C_18
REMARK    8  A    between atoms: C_20  and  C_21
REMARK    9  A    between atoms: C_26  and  C_27
REMARK                            x       y       z     vdW  Elec       q    Type
REMARK                         _______ _______ _______ _____ _____    ______ ____
ROOT
ATOM      9  C   UNL     1       0.438   0.989  -0.911  0.00  0.00    +0.047 C 
ATOM     10  C   UNL     1       1.107  -0.291  -0.369  0.00  0.00    +0.039 C 
ATOM     11  C   UNL     1       1.989  -0.817  -1.509  0.00  0.00    +0.097 C 
ATOM     13  C   UNL     1       0.533   0.798  -2.397  0.00  0.00    -0.021 C 
ATOM     14  C   UNL     1       1.381  -0.184  -2.717  0.00  0.00    -0.009 C 
ENDROOT
BRANCH   9  12
ATOM      7  N   UNL     1      -3.078   0.972   0.118  0.00  0.00    -0.236 N 
ATOM      8  N   UNL     1      -2.756   2.165   0.647  0.00  0.00    -0.171 NA
ATOM     12  C   UNL     1      -0.965   1.197  -0.389  0.00  0.00    +0.003 A 
ATOM     15  C   UNL     1      -2.040   0.351  -0.513  0.00  0.00    +0.046 A 
ATOM     16  C   UNL     1      -1.464   2.297   0.334  0.00  0.00    +0.064 A 
ATOM     17  C   UNL     1      -2.161  -0.969  -1.165  0.00  0.00    +0.066 C 
ATOM     18  C   UNL     1      -0.738   3.508   0.753  0.00  0.00    +0.068 C 
BRANCH   7  19
ATOM     19  C   UNL     1      -4.379   0.485   0.249  0.00  0.00    +0.066 A 
ATOM     22  C   UNL     1      -4.609  -0.724   0.905  0.00  0.00    +0.028 A 
ATOM     23  C   UNL     1      -5.449   1.208  -0.278  0.00  0.00    +0.028 A 
ATOM     24  C   UNL     1      -5.910  -1.210   1.035  0.00  0.00    +0.014 A 
ATOM     25  C   UNL     1      -6.750   0.722  -0.148  0.00  0.00    +0.014 A 
ATOM     26  C   UNL     1      -6.981  -0.487   0.508  0.00  0.00    +0.055 A 
BRANCH  26  27
ATOM      1  F   UNL     1      -9.204  -0.168   1.333  0.00  0.00    -0.166 F 
ATOM      2  F   UNL     1      -8.423  -2.197   1.314  0.00  0.00    -0.166 F 
ATOM      3  F   UNL     1      -8.995  -1.229  -0.547  0.00  0.00    -0.166 F 
ATOM     27  C   UNL     1      -8.372  -1.007   0.648  0.00  0.00    +0.417 C 
ENDBRANCH  26  27
ENDBRANCH   7  19
ENDBRANCH   9  12
BRANCH  11   6
ATOM      4  O   UNL     1       4.161  -2.260  -0.256  0.00  0.00    -0.272 OA
ATOM      6  N   UNL     1       3.359  -0.395  -1.393  0.00  0.00    -0.306 N 
ATOM     20  C   UNL     1       4.339  -1.159  -0.770  0.00  0.00    +0.251 C 
ATOM     34  H   UNL     1       3.615   0.521  -1.751  0.00  0.00    +0.149 HD
BRANCH  20  21
ATOM     21  C   UNL     1       5.689  -0.474  -0.792  0.00  0.00    +0.324 C 
BRANCH  21   5
ATOM      5  O   UNL     1       6.666  -1.278  -0.166  0.00  0.00    -0.483 OA
BRANCH   5  28
ATOM     28  C   UNL     1       7.709  -0.630   0.453  0.00  0.00    +0.121 A 
ATOM     29  C   UNL     1       8.148   0.603  -0.029  0.00  0.00    +0.045 A 
ATOM     30  C   UNL     1       8.330  -1.207   1.561  0.00  0.00    +0.045 A 
ATOM     31  C   UNL     1       9.207   1.260   0.598  0.00  0.00    +0.004 A 
ATOM     32  C   UNL     1       9.390  -0.550   2.187  0.00  0.00    +0.004 A 
ATOM     33  C   UNL     1       9.828   0.683   1.705  0.00  0.00    +0.000 A 
ENDBRANCH   5  28
ENDBRANCH  21   5
ENDBRANCH  20  21
ENDBRANCH  11   6
TORSDOF 7
