REMARK  Name = 51136761
REMARK  11 active torsions:
REMARK  status: ('A' for Active; 'I' for Inactive)
REMARK    1  A    between atoms: S_1  and  N_6
REMARK    2  A    between atoms: S_1  and  C_19
REMARK    3  A    between atoms: O_4  and  C_17
REMARK    4  A    between atoms: C_8  and  C_13
REMARK    5  A    between atoms: C_9  and  C_14
REMARK    6  A    between atoms: C_13  and  C_15
REMARK    7  A    between atoms: C_14  and  C_17
REMARK    8  A    between atoms: C_23  and  C_24
REMARK    9  A    between atoms: C_24  and  C_27
REMARK   10  A    between atoms: C_24  and  C_28
REMARK   11  A    between atoms: C_24  and  C_29
REMARK                            x       y       z     vdW  Elec       q    Type
REMARK                         _______ _______ _______ _____ _____    ______ ____
ROOT
ATOM      6  N   UNL     1      -1.039   1.458   0.958  0.00  0.00    -0.181 NA
ATOM      8  C   UNL     1      -2.038  -0.772   0.511  0.00  0.00    +0.014 C 
ATOM      9  C   UNL     1      -3.269  -0.072  -0.114  0.00  0.00    +0.006 C 
ATOM     10  C   UNL     1      -1.396   0.142   1.566  0.00  0.00    +0.113 C 
ATOM     11  C   UNL     1      -2.910   1.325  -0.644  0.00  0.00    +0.021 C 
ATOM     12  C   UNL     1      -2.235   2.173   0.429  0.00  0.00    +0.109 C 
ENDROOT
BRANCH   6   1
ATOM      1  S   UNL     1       0.043   2.420   1.876  0.00  0.00    +0.029 S 
ATOM      2  O   UNL     1       0.397   3.588   1.100  0.00  0.00    -0.158 OA
ATOM      3  O   UNL     1       1.048   1.559   2.458  0.00  0.00    -0.158 OA
ATOM     19  C   UNL     1      -1.060   2.931   3.168  0.00  0.00    +0.215 C 
ENDBRANCH   6   1
BRANCH   8  13
ATOM     13  C   UNL     1      -0.992  -1.229  -0.513  0.00  0.00    +0.060 C 
BRANCH  13  15
ATOM      7  N   UNL     1      -0.120  -2.964   0.900  0.00  0.00    -0.287 NA
ATOM     15  C   UNL     1       0.152  -1.917   0.194  0.00  0.00    +0.044 C 
ATOM     16  C   UNL     1       1.520  -1.358   0.051  0.00  0.00    -0.001 A 
ATOM     18  C   UNL     1       2.469  -1.763   0.999  0.00  0.00    -0.037 A 
ATOM     20  C   UNL     1       2.045  -2.706   2.085  0.00  0.00    +0.059 C 
ATOM     21  C   UNL     1       0.999  -3.668   1.537  0.00  0.00    +0.146 C 
ATOM     22  C   UNL     1       1.868  -0.460  -0.960  0.00  0.00    +0.014 A 
ATOM     23  C   UNL     1       3.169   0.043  -1.015  0.00  0.00    -0.041 A 
ATOM     25  C   UNL     1       3.765  -1.241   0.945  0.00  0.00    +0.004 A 
ATOM     26  C   UNL     1       4.114  -0.344  -0.065  0.00  0.00    +0.004 A 
BRANCH  23  24
ATOM     24  C   UNL     1       3.552   0.994  -2.098  0.00  0.00    -0.013 C 
ATOM     27  C   UNL     1       4.712   0.420  -2.971  0.00  0.00    +0.015 C 
ATOM     28  C   UNL     1       4.036   2.356  -1.510  0.00  0.00    +0.015 C 
ATOM     29  C   UNL     1       2.413   1.358  -3.107  0.00  0.00    +0.015 C 
ENDBRANCH  23  24
ENDBRANCH  13  15
ENDBRANCH   8  13
BRANCH   9  14
ATOM     14  C   UNL     1      -3.946  -0.904  -1.202  0.00  0.00    +0.124 C 
BRANCH  14  17
ATOM      5  O   UNL     1      -5.974   0.387  -0.803  0.00  0.00    -0.251 OA
ATOM     17  C   UNL     1      -5.379  -0.495  -1.403  0.00  0.00    +0.305 C 
BRANCH  17   4
ATOM      4  O   UNL     1      -5.943  -1.261  -2.372  0.00  0.00    -0.481 OA
ATOM     30  H   UNL     1      -6.880  -1.020  -2.530  0.00  0.00    +0.295 HD
ENDBRANCH  17   4
ENDBRANCH  14  17
ENDBRANCH   9  14
TORSDOF 7
