REMARK  Name = 45784212
REMARK  3 active torsions:
REMARK  status: ('A' for Active; 'I' for Inactive)
REMARK    1  A    between atoms: N_1  and  C_4
REMARK    2  A    between atoms: C_7  and  C_12
REMARK    3  A    between atoms: C_17  and  C_19
REMARK                            x       y       z     vdW  Elec       q    Type
REMARK                         _______ _______ _______ _____ _____    ______ ____
ROOT
ATOM      2  N   UNL     1      -1.488   0.812  -1.087  0.00  0.00    -0.342 N 
ATOM      3  N   UNL     1      -0.911  -0.111   0.851  0.00  0.00    -0.232 NA
ATOM     12  C   UNL     1      -0.479   0.543  -0.205  0.00  0.00    +0.113 A 
ATOM     13  C   UNL     1      -2.648   0.297  -0.567  0.00  0.00    +0.066 A 
ATOM     14  C   UNL     1      -2.261  -0.273   0.643  0.00  0.00    +0.089 A 
ATOM     15  C   UNL     1      -3.962   0.283  -1.036  0.00  0.00    +0.031 A 
ATOM     16  C   UNL     1      -3.230  -0.899   1.445  0.00  0.00    +0.030 A 
ATOM     17  C   UNL     1      -4.913  -0.345  -0.225  0.00  0.00    -0.048 A 
ATOM     18  C   UNL     1      -4.556  -0.926   0.994  0.00  0.00    +0.005 A 
ATOM     19  C   UNL     1      -6.337  -0.394  -0.672  0.00  0.00    +0.044 C 
ATOM     20  H   UNL     1      -1.399   1.302  -1.968  0.00  0.00    +0.167 HD
ENDROOT
BRANCH  12   7
ATOM      1  N   UNL     1       3.182   0.402  -0.095  0.00  0.00    -0.299 NA
ATOM      7  C   UNL     1       0.942   0.978  -0.480  0.00  0.00    +0.070 C 
ATOM      8  C   UNL     1       1.925  -0.199  -0.550  0.00  0.00    +0.096 C 
ATOM     10  C   UNL     1       2.809   1.229   1.054  0.00  0.00    +0.085 C 
ATOM     11  C   UNL     1       1.543   1.926   0.572  0.00  0.00    +0.028 C 
BRANCH   1   4
ATOM      4  C   UNL     1       4.142  -0.635   0.300  0.00  0.00    +0.057 C 
ATOM      5  C   UNL     1       4.630  -1.393  -0.952  0.00  0.00    +0.019 C 
ATOM      6  C   UNL     1       5.556  -0.025   0.388  0.00  0.00    +0.019 C 
ATOM      9  C   UNL     1       6.056  -1.268  -0.378  0.00  0.00    +0.003 C 
ENDBRANCH   1   4
ENDBRANCH  12   7
TORSDOF 2
