REMARK  Name = 38028376
REMARK  13 active torsions:
REMARK  status: ('A' for Active; 'I' for Inactive)
REMARK    1  A    between atoms: O_3  and  C_24
REMARK    2  A    between atoms: O_3  and  C_32
REMARK    3  A    between atoms: N_4  and  C_14
REMARK    4  A    between atoms: N_5  and  C_21
REMARK    5  A    between atoms: C_7  and  C_11
REMARK    6  A    between atoms: C_8  and  C_14
REMARK    7  A    between atoms: C_10  and  C_15
REMARK    8  A    between atoms: C_11  and  C_16
REMARK    9  A    between atoms: C_11  and  C_17
REMARK   10  A    between atoms: C_12  and  C_18
REMARK   11  A    between atoms: C_15  and  C_19
REMARK   12  A    between atoms: C_20  and  C_22
REMARK   13  A    between atoms: C_21  and  C_23
REMARK                            x       y       z     vdW  Elec       q    Type
REMARK                         _______ _______ _______ _____ _____    ______ ____
ROOT
ATOM      7  C   UNL     1      -0.046   2.058  -1.142  0.00  0.00    +0.000 C 
ATOM      8  C   UNL     1       1.263   2.873  -1.287  0.00  0.00    +0.032 C 
ATOM      9  C   UNL     1      -1.024   2.777  -0.200  0.00  0.00    +0.012 C 
ATOM     10  C   UNL     1      -0.427   2.995   1.203  0.00  0.00    +0.023 C 
ATOM     12  C   UNL     1       0.981   3.552   1.135  0.00  0.00    -0.073 C 
ATOM     13  C   UNL     1       1.716   3.501   0.010  0.00  0.00    -0.022 C 
ATOM     18  C   UNL     1       1.508   4.211   2.379  0.00  0.00    +0.039 C 
ENDROOT
BRANCH   7  11
ATOM     11  C   UNL     1      -0.718   1.813  -2.497  0.00  0.00    -0.013 C 
ATOM     16  C   UNL     1      -1.603   0.573  -2.437  0.00  0.00    +0.007 C 
ATOM     17  C   UNL     1      -1.527   3.036  -2.919  0.00  0.00    +0.007 C 
ENDBRANCH   7  11
BRANCH   8  14
ATOM     14  C   UNL     1       2.393   2.008  -1.858  0.00  0.00    +0.112 C 
BRANCH  14   4
ATOM      2  O   UNL     1       2.272  -0.820  -2.336  0.00  0.00    -0.270 OA
ATOM      4  N   UNL     1       2.751   0.972  -0.941  0.00  0.00    -0.311 N 
ATOM     20  C   UNL     1       2.661  -0.384  -1.256  0.00  0.00    +0.248 C 
ATOM     34  H   UNL     1       3.074   1.258  -0.024  0.00  0.00    +0.149 HD
BRANCH  20  22
ATOM     22  C   UNL     1       3.046  -1.337  -0.184  0.00  0.00    +0.078 A 
ATOM     24  C   UNL     1       2.458  -2.599  -0.103  0.00  0.00    +0.132 A 
ATOM     25  C   UNL     1       4.009  -0.955   0.750  0.00  0.00    +0.017 A 
ATOM     26  C   UNL     1       2.832  -3.480   0.912  0.00  0.00    +0.046 A 
ATOM     27  C   UNL     1       4.383  -1.836   1.765  0.00  0.00    +0.001 A 
ATOM     29  C   UNL     1       3.795  -3.098   1.846  0.00  0.00    +0.004 A 
BRANCH  24   3
ATOM      3  O   UNL     1       1.514  -2.990  -1.005  0.00  0.00    -0.494 OA
ATOM     32  C   UNL     1       0.967  -4.297  -0.845  0.00  0.00    +0.277 C 
ENDBRANCH  24   3
ENDBRANCH  20  22
ENDBRANCH  14   4
ENDBRANCH   8  14
BRANCH  10  15
ATOM     15  C   UNL     1      -0.467   1.704   2.027  0.00  0.00    +0.103 C 
BRANCH  15  19
ATOM      1  O   UNL     1      -2.885   1.789   2.062  0.00  0.00    -0.276 OA
ATOM      5  N   UNL     1      -1.810  -0.267   2.199  0.00  0.00    -0.310 N 
ATOM     19  C   UNL     1      -1.859   1.116   2.095  0.00  0.00    +0.214 C 
ATOM     35  H   UNL     1      -0.909  -0.736   2.216  0.00  0.00    +0.149 HD
BRANCH   5  21
ATOM     21  C   UNL     1      -2.991  -1.094   2.282  0.00  0.00    +0.159 C 
BRANCH  21  23
ATOM      6  N   UNL     1      -4.696  -1.202   0.554  0.00  0.00    -0.258 NA
ATOM     23  C   UNL     1      -3.447  -1.561   0.930  0.00  0.00    +0.058 A 
ATOM     28  C   UNL     1      -2.589  -2.317   0.148  0.00  0.00    +0.025 A 
ATOM     30  C   UNL     1      -3.041  -2.733  -1.099  0.00  0.00    +0.003 A 
ATOM     31  C   UNL     1      -5.100  -1.625  -0.665  0.00  0.00    +0.111 A 
ATOM     33  C   UNL     1      -4.319  -2.384  -1.521  0.00  0.00    +0.020 A 
ENDBRANCH  21  23
ENDBRANCH   5  21
ENDBRANCH  15  19
ENDBRANCH  10  15
TORSDOF 9
