REMARK  Name = 75537014
REMARK  2 active torsions:
REMARK  status: ('A' for Active; 'I' for Inactive)
REMARK    1  A    between atoms: N_4  and  C_9
REMARK    2  A    between atoms: C_20  and  C_21
REMARK                            x       y       z     vdW  Elec       q    Type
REMARK                         _______ _______ _______ _____ _____    ______ ____
ROOT
ATOM      1  O   UNL     1       2.364  -2.745   0.344  0.00  0.00    -0.252 OA
ATOM      2  O   UNL     1      -4.521  -1.619  -0.031  0.00  0.00    -0.267 OA
ATOM      4  N   UNL     1       2.221  -0.400   0.146  0.00  0.00    -0.281 N 
ATOM      5  N   UNL     1       0.320  -1.587   0.314  0.00  0.00    -0.278 N 
ATOM      6  N   UNL     1      -2.298  -1.017  -0.425  0.00  0.00    -0.292 N 
ATOM      8  C   UNL     1      -0.111  -0.199   0.329  0.00  0.00    +0.112 C 
ATOM     10  C   UNL     1       1.159   0.580   0.000  0.00  0.00    +0.133 C 
ATOM     13  C   UNL     1      -1.259   0.006  -0.654  0.00  0.00    +0.132 C 
ATOM     14  C   UNL     1       1.716  -1.708   0.280  0.00  0.00    +0.305 C 
ATOM     15  C   UNL     1      -0.661  -2.650   0.436  0.00  0.00    +0.128 C 
ATOM     19  C   UNL     1      -1.823  -2.404  -0.526  0.00  0.00    +0.127 C 
ATOM     20  C   UNL     1      -3.648  -0.765  -0.178  0.00  0.00    +0.285 C 
ENDROOT
BRANCH   4   9
ATOM      9  C   UNL     1       3.613  -0.041   0.025  0.00  0.00    +0.078 C 
ATOM     11  C   UNL     1       3.880   0.650  -1.315  0.00  0.00    +0.022 C 
ATOM     12  C   UNL     1       4.045   0.838   1.201  0.00  0.00    +0.022 C 
ATOM     16  C   UNL     1       5.337   1.087  -1.441  0.00  0.00    +0.002 C 
ATOM     17  C   UNL     1       5.502   1.276   1.071  0.00  0.00    +0.002 C 
ATOM     18  C   UNL     1       5.766   1.962  -0.267  0.00  0.00    +0.000 C 
ENDBRANCH   4   9
BRANCH  20  21
ATOM      3  O   UNL     1      -3.529   1.405   0.900  0.00  0.00    -0.350 OA
ATOM      7  N   UNL     1      -4.070   2.684   0.834  0.00  0.00    -0.086 NA
ATOM     21  C   UNL     1      -4.082   0.634  -0.071  0.00  0.00    +0.222 A 
ATOM     22  C   UNL     1      -4.985   1.373  -0.788  0.00  0.00    +0.077 A 
ATOM     23  C   UNL     1      -4.937   2.640  -0.182  0.00  0.00    +0.157 A 
ENDBRANCH  20  21
TORSDOF 2
