REMARK  Name = 45360886
REMARK  9 active torsions:
REMARK  status: ('A' for Active; 'I' for Inactive)
REMARK    1  A    between atoms: N_3  and  C_17
REMARK    2  A    between atoms: N_4  and  C_16
REMARK    3  A    between atoms: N_7  and  C_29
REMARK    4  A    between atoms: N_7  and  C_34
REMARK    5  A    between atoms: N_7  and  C_35
REMARK    6  A    between atoms: C_12  and  C_15
REMARK    7  A    between atoms: C_15  and  C_18
REMARK    8  A    between atoms: C_16  and  C_19
REMARK    9  A    between atoms: C_18  and  C_20
REMARK                            x       y       z     vdW  Elec       q    Type
REMARK                         _______ _______ _______ _____ _____    ______ ____
ROOT
ATOM      1  O   UNL     1      -0.943  -0.153  -1.323  0.00  0.00    -0.274 OA
ATOM      3  N   UNL     1       0.627   2.633   0.858  0.00  0.00    -0.296 NA
ATOM      4  N   UNL     1      -2.708   1.370   0.040  0.00  0.00    -0.286 NA
ATOM      5  N   UNL     1       0.471   1.575  -1.821  0.00  0.00    -0.312 N 
ATOM      8  C   UNL     1      -0.838   2.767   0.705  0.00  0.00    +0.084 C 
ATOM      9  C   UNL     1      -1.525   2.063  -0.502  0.00  0.00    +0.161 C 
ATOM     10  C   UNL     1      -1.644   2.219   1.897  0.00  0.00    +0.036 C 
ATOM     11  C   UNL     1      -3.025   1.999   1.317  0.00  0.00    +0.087 C 
ATOM     12  C   UNL     1       1.421   3.237  -0.249  0.00  0.00    +0.074 C 
ATOM     13  C   UNL     1      -0.658   1.040  -1.232  0.00  0.00    +0.232 C 
ATOM     14  C   UNL     1       0.877   2.957  -1.664  0.00  0.00    +0.123 C 
ATOM     17  C   UNL     1       1.070   3.172   2.155  0.00  0.00    +0.105 C 
ATOM     36  H   UNL     1       1.049   0.961  -2.388  0.00  0.00    +0.149 HD
ENDROOT
BRANCH  12  15
ATOM     15  C   UNL     1       2.879   2.734  -0.204  0.00  0.00    +0.029 C 
BRANCH  15  18
ATOM     18  C   UNL     1       2.955   1.225  -0.076  0.00  0.00    +0.098 C 
BRANCH  18  20
ATOM      2  O   UNL     1       5.298   1.574  -0.147  0.00  0.00    -0.275 OA
ATOM      6  N   UNL     1       4.545  -0.626   0.056  0.00  0.00    -0.271 N 
ATOM     20  C   UNL     1       4.388   0.749  -0.060  0.00  0.00    +0.220 C 
ATOM     23  C   UNL     1       3.450  -1.614   0.160  0.00  0.00    +0.118 C 
ATOM     24  C   UNL     1       5.773  -1.318   0.093  0.00  0.00    +0.039 A 
ATOM     25  C   UNL     1       4.085  -3.004   0.276  0.00  0.00    +0.056 C 
ATOM     26  C   UNL     1       5.544  -2.690   0.218  0.00  0.00    -0.024 A 
ATOM     30  C   UNL     1       7.066  -0.821   0.025  0.00  0.00    +0.024 A 
ATOM     31  C   UNL     1       6.595  -3.594   0.278  0.00  0.00    +0.005 A 
ATOM     32  C   UNL     1       8.131  -1.726   0.084  0.00  0.00    +0.002 A 
ATOM     33  C   UNL     1       7.898  -3.102   0.210  0.00  0.00    +0.000 A 
ENDBRANCH  18  20
ENDBRANCH  15  18
ENDBRANCH  12  15
BRANCH   4  16
ATOM     16  C   UNL     1      -3.846   1.371  -0.870  0.00  0.00    +0.120 C 
BRANCH  16  19
ATOM     19  C   UNL     1      -4.820   0.268  -0.552  0.00  0.00    -0.033 A 
ATOM     21  C   UNL     1      -4.526  -1.047  -0.913  0.00  0.00    +0.007 A 
ATOM     22  C   UNL     1      -6.016   0.560   0.104  0.00  0.00    +0.007 A 
ATOM     27  C   UNL     1      -5.428  -2.069  -0.619  0.00  0.00    +0.023 A 
ATOM     28  C   UNL     1      -6.918  -0.462   0.399  0.00  0.00    +0.023 A 
ATOM     29  C   UNL     1      -6.624  -1.777   0.037  0.00  0.00    +0.029 A 
BRANCH  29   7
ATOM      7  N   UNL     1      -7.536  -2.811   0.335  0.00  0.00    -0.336 N 
ATOM     34  C   UNL     1      -7.240  -4.180  -0.037  0.00  0.00    +0.129 C 
ATOM     35  C   UNL     1      -8.778  -2.518   1.023  0.00  0.00    +0.129 C 
ENDBRANCH  29   7
ENDBRANCH  16  19
ENDBRANCH   4  16
TORSDOF 6
