REMARK  Name = 7142707
REMARK  7 active torsions:
REMARK  status: ('A' for Active; 'I' for Inactive)
REMARK    1  A    between atoms: N_7  and  C_20
REMARK    2  A    between atoms: C_15  and  C_18
REMARK    3  A    between atoms: C_18  and  C_19
REMARK    4  A    between atoms: C_19  and  C_22
REMARK    5  A    between atoms: C_19  and  C_23
REMARK    6  A    between atoms: C_19  and  C_24
REMARK    7  A    between atoms: C_25  and  C_26
REMARK                            x       y       z     vdW  Elec       q    Type
REMARK                         _______ _______ _______ _____ _____    ______ ____
ROOT
ATOM      2  O   UNL     1      -3.824  -1.467   1.693  0.00  0.00    -0.276 OA
ATOM      3  O   UNL     1       0.514   1.669   1.865  0.00  0.00    -0.266 OA
ATOM      5  N   UNL     1      -3.997   0.266   0.155  0.00  0.00    -0.301 N 
ATOM      6  N   UNL     1      -1.245   1.882   0.341  0.00  0.00    -0.310 N 
ATOM      8  C   UNL     1      -3.609   2.569   1.042  0.00  0.00    +0.027 C 
ATOM      9  C   UNL     1      -3.131   2.074  -1.319  0.00  0.00    +0.054 C 
ATOM     10  C   UNL     1      -3.718   3.120  -0.374  0.00  0.00    +0.018 C 
ATOM     11  C   UNL     1      -4.389   1.248   1.167  0.00  0.00    +0.113 C 
ATOM     12  C   UNL     1      -3.952   0.773  -1.225  0.00  0.00    +0.117 C 
ATOM     13  C   UNL     1      -2.127   2.399   1.395  0.00  0.00    +0.130 C 
ATOM     14  C   UNL     1      -1.678   1.791  -0.986  0.00  0.00    +0.027 A 
ATOM     15  C   UNL     1      -3.782  -1.061   0.529  0.00  0.00    +0.216 C 
ATOM     16  C   UNL     1      -0.820   1.426  -1.953  0.00  0.00    +0.024 A 
ATOM     17  C   UNL     1       0.082   1.586   0.714  0.00  0.00    +0.273 A 
ATOM     20  C   UNL     1       1.000   1.160  -0.390  0.00  0.00    +0.099 A 
ATOM     21  C   UNL     1       0.545   1.104  -1.646  0.00  0.00    +0.030 A 
ENDROOT
BRANCH  20   7
ATOM      4  O   UNL     1       2.693  -0.667  -1.782  0.00  0.00    -0.270 OA
ATOM      7  N   UNL     1       2.288   0.851  -0.067  0.00  0.00    -0.277 N 
ATOM     25  C   UNL     1       3.062  -0.049  -0.787  0.00  0.00    +0.248 C 
ATOM     32  H   UNL     1       2.607   1.210   0.826  0.00  0.00    +0.155 HD
BRANCH  25  26
ATOM      1  F   UNL     1       8.286  -0.759   1.052  0.00  0.00    -0.205 F 
ATOM     26  C   UNL     1       4.452  -0.239  -0.297  0.00  0.00    +0.037 A 
ATOM     27  C   UNL     1       5.427  -0.624  -1.194  0.00  0.00    +0.016 A 
ATOM     28  C   UNL     1       4.723  -0.023   1.038  0.00  0.00    +0.016 A 
ATOM     29  C   UNL     1       6.732  -0.801  -0.734  0.00  0.00    +0.039 A 
ATOM     30  C   UNL     1       6.029  -0.200   1.497  0.00  0.00    +0.039 A 
ATOM     31  C   UNL     1       7.033  -0.589   0.611  0.00  0.00    +0.123 A 
ENDBRANCH  25  26
ENDBRANCH  20   7
BRANCH  15  18
ATOM     18  C   UNL     1      -3.474  -2.034  -0.580  0.00  0.00    +0.102 C 
BRANCH  18  19
ATOM     19  C   UNL     1      -3.305  -3.480  -0.078  0.00  0.00    -0.029 C 
ATOM     22  C   UNL     1      -2.158  -3.583   0.942  0.00  0.00    +0.011 C 
ATOM     23  C   UNL     1      -3.039  -4.446  -1.245  0.00  0.00    +0.011 C 
ATOM     24  C   UNL     1      -4.617  -3.895   0.615  0.00  0.00    +0.011 C 
ENDBRANCH  18  19
ENDBRANCH  15  18
TORSDOF 4
