REMARK  Name = 11941488
REMARK  6 active torsions:
REMARK  status: ('A' for Active; 'I' for Inactive)
REMARK    1  A    between atoms: O_5  and  C_26
REMARK    2  A    between atoms: N_8  and  C_10
REMARK    3  A    between atoms: C_18  and  C_20
REMARK    4  A    between atoms: C_20  and  C_24
REMARK    5  A    between atoms: C_22  and  C_25
REMARK    6  A    between atoms: C_24  and  C_26
REMARK                            x       y       z     vdW  Elec       q    Type
REMARK                         _______ _______ _______ _____ _____    ______ ____
ROOT
ATOM      2  O   UNL     1      -0.803  -3.671   1.273  0.00  0.00    -0.273 OA
ATOM      3  O   UNL     1       1.492  -0.895  -2.571  0.00  0.00    -0.270 OA
ATOM      7  N   UNL     1      -0.187  -1.488  -1.117  0.00  0.00    -0.284 N 
ATOM      9  N   UNL     1       1.182  -2.556   1.258  0.00  0.00    -0.283 N 
ATOM     10  C   UNL     1      -2.288  -1.671  -0.045  0.00  0.00    +0.104 C 
ATOM     11  C   UNL     1      -0.782  -1.509   0.207  0.00  0.00    +0.183 C 
ATOM     12  C   UNL     1      -2.348  -2.389  -1.395  0.00  0.00    +0.043 C 
ATOM     13  C   UNL     1      -1.158  -1.818  -2.150  0.00  0.00    +0.111 C 
ATOM     14  C   UNL     1      -0.148  -2.689   0.920  0.00  0.00    +0.240 C 
ATOM     15  C   UNL     1       1.084  -1.050  -1.421  0.00  0.00    +0.249 C 
ATOM     16  C   UNL     1       2.017  -0.775  -0.297  0.00  0.00    +0.059 A 
ATOM     17  C   UNL     1       2.090  -1.543   0.878  0.00  0.00    +0.046 A 
ATOM     19  C   UNL     1       2.982   0.221  -0.533  0.00  0.00    +0.024 A 
ATOM     21  C   UNL     1       3.169  -1.338   1.755  0.00  0.00    +0.024 A 
ATOM     22  C   UNL     1       4.019   0.441   0.372  0.00  0.00    -0.010 A 
ATOM     23  C   UNL     1       4.120  -0.347   1.511  0.00  0.00    +0.011 A 
ATOM     31  H   UNL     1       1.530  -3.232   1.934  0.00  0.00    +0.155 HD
ENDROOT
BRANCH  22  25
ATOM      1  S   UNL     1       4.724   3.046   0.725  0.00  0.00    -0.097 S 
ATOM     25  C   UNL     1       4.998   1.468   0.116  0.00  0.00    +0.019 A 
ATOM     27  C   UNL     1       6.185   1.384  -0.579  0.00  0.00    +0.016 A 
ATOM     28  C   UNL     1       6.878   2.628  -0.611  0.00  0.00    +0.008 A 
ATOM     29  C   UNL     1       6.194   3.618   0.060  0.00  0.00    +0.046 A 
ENDBRANCH  22  25
BRANCH  10   8
ATOM      4  O   UNL     1      -5.057  -1.085   0.555  0.00  0.00    -0.276 OA
ATOM      8  N   UNL     1      -2.942  -0.384  -0.108  0.00  0.00    -0.310 N 
ATOM     18  C   UNL     1      -4.282  -0.200   0.201  0.00  0.00    +0.214 C 
ATOM     30  H   UNL     1      -2.404   0.409  -0.446  0.00  0.00    +0.149 HD
BRANCH  18  20
ATOM     20  C   UNL     1      -4.696   1.252   0.044  0.00  0.00    +0.107 C 
BRANCH  20  24
ATOM     24  C   UNL     1      -6.167   1.479   0.378  0.00  0.00    +0.129 C 
BRANCH  24  26
ATOM      6  O   UNL     1      -5.822   3.835  -0.126  0.00  0.00    -0.251 OA
ATOM     26  C   UNL     1      -6.567   2.926   0.212  0.00  0.00    +0.305 C 
BRANCH  26   5
ATOM      5  O   UNL     1      -7.885   3.111   0.487  0.00  0.00    -0.481 OA
ATOM     32  H   UNL     1      -8.153   4.049   0.380  0.00  0.00    +0.295 HD
ENDBRANCH  26   5
ENDBRANCH  24  26
ENDBRANCH  20  24
ENDBRANCH  18  20
ENDBRANCH  10   8
TORSDOF 6
