REMARK  Name = 45360923
REMARK  10 active torsions:
REMARK  status: ('A' for Active; 'I' for Inactive)
REMARK    1  A    between atoms: S_1  and  C_28
REMARK    2  A    between atoms: S_1  and  C_30
REMARK    3  A    between atoms: N_7  and  C_18
REMARK    4  A    between atoms: N_8  and  C_20
REMARK    5  A    between atoms: N_10  and  C_29
REMARK    6  A    between atoms: C_15  and  C_19
REMARK    7  A    between atoms: C_18  and  C_22
REMARK    8  A    between atoms: C_19  and  C_21
REMARK    9  A    between atoms: C_21  and  C_25
REMARK   10  A    between atoms: C_29  and  C_31
REMARK                            x       y       z     vdW  Elec       q    Type
REMARK                         _______ _______ _______ _____ _____    ______ ____
ROOT
ATOM      3  O   UNL     1       1.579  -2.653   0.739  0.00  0.00    -0.274 OA
ATOM      7  N   UNL     1       1.767  -0.063  -0.004  0.00  0.00    -0.286 NA
ATOM      8  N   UNL     1      -1.484  -1.264  -1.179  0.00  0.00    -0.296 NA
ATOM      9  N   UNL     1      -0.646  -2.551   1.263  0.00  0.00    -0.312 N 
ATOM     11  C   UNL     1      -0.540  -0.210  -0.744  0.00  0.00    +0.084 C 
ATOM     12  C   UNL     1       0.435  -0.527   0.428  0.00  0.00    +0.161 C 
ATOM     13  C   UNL     1       0.427   0.257  -1.848  0.00  0.00    +0.036 C 
ATOM     14  C   UNL     1       1.557   0.904  -1.076  0.00  0.00    +0.087 C 
ATOM     15  C   UNL     1      -2.480  -1.664  -0.146  0.00  0.00    +0.074 C 
ATOM     16  C   UNL     1       0.536  -2.003   0.803  0.00  0.00    +0.232 C 
ATOM     17  C   UNL     1      -1.907  -1.837   1.275  0.00  0.00    +0.123 C 
ATOM     20  C   UNL     1      -2.169  -0.872  -2.422  0.00  0.00    +0.105 C 
ATOM     37  H   UNL     1      -0.642  -3.525   1.552  0.00  0.00    +0.149 HD
ENDROOT
BRANCH   7  18
ATOM     18  C   UNL     1       2.567   0.488   1.083  0.00  0.00    +0.120 C 
BRANCH  18  22
ATOM     22  C   UNL     1       4.037   0.471   0.761  0.00  0.00    -0.033 A 
ATOM     23  C   UNL     1       4.753  -0.724   0.833  0.00  0.00    +0.007 A 
ATOM     24  C   UNL     1       4.684   1.650   0.390  0.00  0.00    +0.007 A 
ATOM     26  C   UNL     1       6.116  -0.740   0.535  0.00  0.00    +0.027 A 
ATOM     27  C   UNL     1       6.047   1.634   0.092  0.00  0.00    +0.027 A 
ATOM     28  C   UNL     1       6.763   0.439   0.164  0.00  0.00    +0.088 A 
BRANCH  28   1
ATOM      1  S   UNL     1       8.467   0.418  -0.212  0.00  0.00    -0.006 S 
ATOM      5  O   UNL     1       9.012   1.753  -0.008  0.00  0.00    -0.170 OA
ATOM      6  O   UNL     1       9.064  -0.719   0.474  0.00  0.00    -0.170 OA
ATOM     30  C   UNL     1       8.530   0.096  -1.960  0.00  0.00    +0.200 C 
ENDBRANCH  28   1
ENDBRANCH  18  22
ENDBRANCH   7  18
BRANCH  15  19
ATOM     19  C   UNL     1      -3.159  -2.993  -0.537  0.00  0.00    +0.029 C 
BRANCH  19  21
ATOM     21  C   UNL     1      -4.521  -3.113   0.121  0.00  0.00    +0.097 C 
BRANCH  21  25
ATOM      4  O   UNL     1      -5.772  -1.771  -1.459  0.00  0.00    -0.276 OA
ATOM     10  N   UNL     1      -5.862  -1.235   0.798  0.00  0.00    -0.311 N 
ATOM     25  C   UNL     1      -5.446  -1.983  -0.294  0.00  0.00    +0.213 C 
ATOM     38  H   UNL     1      -5.523  -1.462   1.728  0.00  0.00    +0.149 HD
BRANCH  10  29
ATOM     29  C   UNL     1      -6.747  -0.102   0.664  0.00  0.00    +0.139 C 
BRANCH  29  31
ATOM      2  F   UNL     1      -3.904   4.700  -0.115  0.00  0.00    -0.205 F 
ATOM     31  C   UNL     1      -5.987   1.181   0.456  0.00  0.00    -0.030 A 
ATOM     32  C   UNL     1      -5.597   1.946   1.555  0.00  0.00    +0.008 A 
ATOM     33  C   UNL     1      -5.674   1.605  -0.836  0.00  0.00    +0.008 A 
ATOM     34  C   UNL     1      -4.893   3.135   1.363  0.00  0.00    +0.038 A 
ATOM     35  C   UNL     1      -4.971   2.793  -1.028  0.00  0.00    +0.038 A 
ATOM     36  C   UNL     1      -4.580   3.558   0.071  0.00  0.00    +0.123 A 
ENDBRANCH  29  31
ENDBRANCH  10  29
ENDBRANCH  21  25
ENDBRANCH  19  21
ENDBRANCH  15  19
TORSDOF 8
