REMARK  Name = 11939784
REMARK  9 active torsions:
REMARK  status: ('A' for Active; 'I' for Inactive)
REMARK    1  A    between atoms: O_4  and  C_18
REMARK    2  A    between atoms: O_4  and  C_23
REMARK    3  A    between atoms: N_5  and  C_13
REMARK    4  A    between atoms: N_6  and  C_12
REMARK    5  A    between atoms: N_9  and  C_26
REMARK    6  A    between atoms: N_9  and  C_29
REMARK    7  A    between atoms: N_9  and  C_30
REMARK    8  A    between atoms: C_16  and  C_18
REMARK    9  A    between atoms: C_19  and  C_22
REMARK                            x       y       z     vdW  Elec       q    Type
REMARK                         _______ _______ _______ _____ _____    ______ ____
ROOT
ATOM      6  N   UNL     1       0.650  -2.692   0.246  0.00  0.00    -0.306 N 
ATOM      7  N   UNL     1      -1.369  -1.576  -0.185  0.00  0.00    -0.214 NA
ATOM      8  N   UNL     1      -0.660  -3.425  -1.558  0.00  0.00    -0.223 NA
ATOM     17  C   UNL     1      -0.494  -2.560  -0.522  0.00  0.00    +0.216 A 
ATOM     19  C   UNL     1      -2.472  -1.476  -0.955  0.00  0.00    +0.076 A 
ATOM     20  C   UNL     1      -1.786  -3.268  -2.285  0.00  0.00    +0.116 A 
ATOM     21  C   UNL     1      -2.736  -2.302  -2.028  0.00  0.00    +0.048 A 
ATOM     32  H   UNL     1       1.320  -3.395  -0.046  0.00  0.00    +0.149 HD
ENDROOT
BRANCH   6  12
ATOM      1  O   UNL     1       3.293  -2.085   1.737  0.00  0.00    -0.370 OA
ATOM      2  O   UNL     1       1.496   0.462   1.877  0.00  0.00    -0.370 OA
ATOM     10  C   UNL     1       1.646  -0.584   0.903  0.00  0.00    +0.171 C 
ATOM     11  C   UNL     1       3.115  -0.956   0.865  0.00  0.00    +0.171 C 
ATOM     12  C   UNL     1       0.958  -1.843   1.375  0.00  0.00    +0.130 C 
ATOM     13  C   UNL     1       3.817   0.259   1.428  0.00  0.00    +0.130 C 
ATOM     14  C   UNL     1       2.015  -2.493   2.249  0.00  0.00    +0.185 C 
ATOM     15  C   UNL     1       2.787   0.808   2.399  0.00  0.00    +0.185 C 
BRANCH  13   5
ATOM      3  O   UNL     1       6.297   0.522  -0.048  0.00  0.00    -0.273 OA
ATOM      5  N   UNL     1       4.119   1.214   0.390  0.00  0.00    -0.306 N 
ATOM     16  C   UNL     1       5.343   1.264  -0.263  0.00  0.00    +0.239 C 
ATOM     31  H   UNL     1       3.380   1.845   0.093  0.00  0.00    +0.149 HD
BRANCH  16  18
ATOM     18  C   UNL     1       5.379   2.364  -1.304  0.00  0.00    +0.255 C 
BRANCH  18   4
ATOM      4  O   UNL     1       6.627   2.385  -1.963  0.00  0.00    -0.374 OA
ATOM     23  C   UNL     1       6.690   3.412  -2.949  0.00  0.00    +0.194 C 
ENDBRANCH  18   4
ENDBRANCH  16  18
ENDBRANCH  13   5
ENDBRANCH   6  12
BRANCH  19  22
ATOM     22  C   UNL     1      -3.387  -0.423  -0.580  0.00  0.00    +0.001 A 
ATOM     24  C   UNL     1      -4.755  -0.566  -0.819  0.00  0.00    +0.012 A 
ATOM     25  C   UNL     1      -2.906   0.742   0.021  0.00  0.00    +0.012 A 
ATOM     26  C   UNL     1      -5.156   1.614   0.141  0.00  0.00    +0.029 A 
ATOM     27  C   UNL     1      -5.639   0.452  -0.459  0.00  0.00    +0.024 A 
ATOM     28  C   UNL     1      -3.789   1.760   0.381  0.00  0.00    +0.024 A 
BRANCH  26   9
ATOM      9  N   UNL     1      -6.049   2.643   0.506  0.00  0.00    -0.336 N 
ATOM     29  C   UNL     1      -7.272   2.853  -0.243  0.00  0.00    +0.129 C 
ATOM     30  C   UNL     1      -5.763   3.494   1.643  0.00  0.00    +0.129 C 
ENDBRANCH  26   9
ENDBRANCH  19  22
TORSDOF 6
