REMARK  Name = 26744361
REMARK  8 active torsions:
REMARK  status: ('A' for Active; 'I' for Inactive)
REMARK    1  A    between atoms: S_1  and  C_24
REMARK    2  A    between atoms: S_1  and  C_28
REMARK    3  A    between atoms: O_2  and  C_14
REMARK    4  A    between atoms: N_8  and  C_16
REMARK    5  A    between atoms: N_11  and  C_29
REMARK    6  A    between atoms: C_12  and  C_17
REMARK    7  A    between atoms: C_16  and  C_18
REMARK    8  A    between atoms: C_21  and  C_25
REMARK                            x       y       z     vdW  Elec       q    Type
REMARK                         _______ _______ _______ _____ _____    ______ ____
ROOT
ATOM      8  N   UNL     1       3.771  -0.191   0.362  0.00  0.00    -0.285 NA
ATOM     12  C   UNL     1       3.112   1.103   0.632  0.00  0.00    +0.149 C 
ATOM     13  C   UNL     1       4.149   2.166   0.222  0.00  0.00    +0.061 C 
ATOM     14  C   UNL     1       5.372   1.373  -0.222  0.00  0.00    +0.130 C 
ATOM     15  C   UNL     1       5.208   0.042   0.487  0.00  0.00    +0.116 C 
ENDROOT
BRANCH  12  17
ATOM      3  O   UNL     1       1.844   1.136  -1.456  0.00  0.00    -0.336 OA
ATOM      9  N   UNL     1       0.601   1.485   0.374  0.00  0.00    -0.190 NA
ATOM     10  N   UNL     1       0.529   1.310  -1.906  0.00  0.00    -0.056 NA
ATOM     17  C   UNL     1       1.798   1.253  -0.104  0.00  0.00    +0.245 A 
ATOM     21  C   UNL     1      -0.144   1.511  -0.769  0.00  0.00    +0.202 A 
BRANCH  21  25
ATOM     25  C   UNL     1      -1.560   1.739  -0.741  0.00  0.00    +0.025 A 
ATOM     26  C   UNL     1      -2.277   1.530   0.437  0.00  0.00    +0.044 A 
ATOM     27  C   UNL     1      -2.219   2.171  -1.892  0.00  0.00    +0.012 A 
ATOM     29  C   UNL     1      -3.654   1.754   0.464  0.00  0.00    +0.127 A 
ATOM     30  C   UNL     1      -3.596   2.394  -1.865  0.00  0.00    +0.003 A 
ATOM     31  C   UNL     1      -4.313   2.185  -0.687  0.00  0.00    +0.033 A 
BRANCH  29  11
ATOM      6  O   UNL     1      -5.623   1.748   1.664  0.00  0.00    -0.126 OA
ATOM      7  O   UNL     1      -3.774   1.152   2.687  0.00  0.00    -0.126 OA
ATOM     11  N   UNL     1      -4.385   1.541   1.662  0.00  0.00    +0.056 N 
ENDBRANCH  29  11
ENDBRANCH  21  25
ENDBRANCH  12  17
BRANCH  14   2
ATOM      2  O   UNL     1       6.563   2.030   0.164  0.00  0.00    -0.390 OA
ATOM     32  H   UNL     1       6.567   2.903  -0.265  0.00  0.00    +0.210 HD
ENDBRANCH  14   2
BRANCH   8  16
ATOM     16  C   UNL     1       3.311  -1.263   1.235  0.00  0.00    +0.120 C 
BRANCH  16  18
ATOM     18  C   UNL     1       1.990  -1.827   0.783  0.00  0.00    -0.033 A 
ATOM     19  C   UNL     1       0.891  -1.801   1.641  0.00  0.00    +0.007 A 
ATOM     20  C   UNL     1       1.865  -2.374  -0.494  0.00  0.00    +0.007 A 
ATOM     22  C   UNL     1      -0.333  -2.323   1.223  0.00  0.00    +0.027 A 
ATOM     23  C   UNL     1       0.641  -2.895  -0.913  0.00  0.00    +0.027 A 
ATOM     24  C   UNL     1      -0.458  -2.870  -0.054  0.00  0.00    +0.088 A 
BRANCH  24   1
ATOM      1  S   UNL     1      -1.990  -3.524  -0.578  0.00  0.00    -0.006 S 
ATOM      4  O   UNL     1      -1.750  -4.500  -1.633  0.00  0.00    -0.170 OA
ATOM      5  O   UNL     1      -2.741  -3.912   0.608  0.00  0.00    -0.170 OA
ATOM     28  C   UNL     1      -2.826  -2.146  -1.329  0.00  0.00    +0.200 C 
ENDBRANCH  24   1
ENDBRANCH  16  18
ENDBRANCH   8  16
TORSDOF 7
