REMARK  Name = 38031080
REMARK  11 active torsions:
REMARK  status: ('A' for Active; 'I' for Inactive)
REMARK    1  A    between atoms: N_3  and  C_14
REMARK    2  A    between atoms: N_3  and  C_20
REMARK    3  A    between atoms: C_7  and  C_11
REMARK    4  A    between atoms: C_8  and  C_14
REMARK    5  A    between atoms: C_10  and  C_15
REMARK    6  A    between atoms: C_11  and  C_16
REMARK    7  A    between atoms: C_11  and  C_17
REMARK    8  A    between atoms: C_12  and  C_18
REMARK    9  A    between atoms: C_15  and  C_19
REMARK   10  A    between atoms: C_20  and  C_21
REMARK   11  A    between atoms: C_22  and  C_24
REMARK                            x       y       z     vdW  Elec       q    Type
REMARK                         _______ _______ _______ _____ _____    ______ ____
ROOT
ATOM      7  C   UNL     1       0.780   1.745  -1.290  0.00  0.00    +0.000 C 
ATOM      8  C   UNL     1       2.184   2.395  -1.226  0.00  0.00    +0.029 C 
ATOM      9  C   UNL     1      -0.228   2.562  -0.466  0.00  0.00    +0.012 C 
ATOM     10  C   UNL     1       0.189   2.680   1.012  0.00  0.00    +0.024 C 
ATOM     12  C   UNL     1       1.648   3.060   1.158  0.00  0.00    -0.073 C 
ATOM     13  C   UNL     1       2.522   2.939   0.143  0.00  0.00    -0.023 C 
ATOM     18  C   UNL     1       2.071   3.627   2.484  0.00  0.00    +0.039 C 
ENDROOT
BRANCH   7  11
ATOM     11  C   UNL     1       0.281   1.609  -2.732  0.00  0.00    -0.013 C 
ATOM     16  C   UNL     1      -0.746   0.486  -2.836  0.00  0.00    +0.007 C 
ATOM     17  C   UNL     1      -0.309   2.929  -3.218  0.00  0.00    +0.007 C 
ENDBRANCH   7  11
BRANCH   8  14
ATOM     14  C   UNL     1       3.272   1.408  -1.666  0.00  0.00    +0.089 C 
BRANCH  14   3
ATOM      3  N   UNL     1       3.351   0.288  -0.744  0.00  0.00    -0.310 NA
ATOM     33  H   UNL     1       3.565   0.623   0.195  0.00  0.00    +0.122 HD
BRANCH   3  20
ATOM     20  C   UNL     1       4.376  -0.662  -1.160  0.00  0.00    +0.136 C 
BRANCH  20  21
ATOM      6  N   UNL     1       3.932  -2.999  -0.668  0.00  0.00    -0.259 NA
ATOM     21  C   UNL     1       4.464  -1.837  -0.229  0.00  0.00    +0.055 A 
ATOM     23  C   UNL     1       5.072  -1.680   1.006  0.00  0.00    +0.024 A 
ATOM     25  C   UNL     1       5.138  -2.787   1.845  0.00  0.00    +0.003 A 
ATOM     26  C   UNL     1       4.015  -4.054   0.174  0.00  0.00    +0.111 A 
ATOM     29  C   UNL     1       4.602  -4.000   1.428  0.00  0.00    +0.020 A 
ENDBRANCH  20  21
ENDBRANCH   3  20
ENDBRANCH  14   3
ENDBRANCH   8  14
BRANCH  10  15
ATOM     15  C   UNL     1      -0.121   1.389   1.778  0.00  0.00    +0.105 C 
BRANCH  15  19
ATOM      2  O   UNL     1      -1.890   0.009   0.817  0.00  0.00    -0.420 OA
ATOM      4  N   UNL     1      -2.614   1.536   2.282  0.00  0.00    -0.112 NA
ATOM      5  N   UNL     1      -3.711   0.833   1.821  0.00  0.00    -0.107 NA
ATOM     19  C   UNL     1      -1.573   1.022   1.669  0.00  0.00    +0.218 A 
ATOM     22  C   UNL     1      -3.241  -0.048   0.969  0.00  0.00    +0.251 A 
BRANCH  22  24
ATOM      1  F   UNL     1      -6.021  -0.387   1.087  0.00  0.00    -0.205 F 
ATOM     24  C   UNL     1      -3.919  -1.042   0.188  0.00  0.00    +0.074 A 
ATOM     27  C   UNL     1      -5.304  -1.178   0.275  0.00  0.00    +0.136 A 
ATOM     28  C   UNL     1      -3.188  -1.873  -0.661  0.00  0.00    +0.016 A 
ATOM     30  C   UNL     1      -5.959  -2.147  -0.486  0.00  0.00    +0.039 A 
ATOM     31  C   UNL     1      -3.843  -2.842  -1.421  0.00  0.00    +0.001 A 
ATOM     32  C   UNL     1      -5.229  -2.979  -1.334  0.00  0.00    +0.003 A 
ENDBRANCH  22  24
ENDBRANCH  15  19
ENDBRANCH  10  15
TORSDOF 8
