REMARK  Name = 11912438
REMARK  4 active torsions:
REMARK  status: ('A' for Active; 'I' for Inactive)
REMARK    1  A    between atoms: O_6  and  C_30
REMARK    2  A    between atoms: O_6  and  C_31
REMARK    3  A    between atoms: N_7  and  C_15
REMARK    4  A    between atoms: C_23  and  C_25
REMARK                            x       y       z     vdW  Elec       q    Type
REMARK                         _______ _______ _______ _____ _____    ______ ____
ROOT
ATOM      5  O   UNL     1      -0.688   0.964  -1.749  0.00  0.00    -0.267 OA
ATOM      7  N   UNL     1       3.976   0.031  -0.160  0.00  0.00    -0.298 NA
ATOM      8  N   UNL     1       1.206   1.569  -0.531  0.00  0.00    -0.311 N 
ATOM      9  C   UNL     1       3.481   2.000  -1.631  0.00  0.00    +0.024 C 
ATOM     10  C   UNL     1       3.244   2.221   0.795  0.00  0.00    +0.050 C 
ATOM     11  C   UNL     1       3.699   2.953  -0.464  0.00  0.00    +0.017 C 
ATOM     12  C   UNL     1       4.300   0.709  -1.421  0.00  0.00    +0.090 C 
ATOM     13  C   UNL     1       4.095   0.944   0.987  0.00  0.00    +0.094 C 
ATOM     14  C   UNL     1       1.977   1.727  -1.773  0.00  0.00    +0.130 C 
ATOM     16  C   UNL     1       1.770   1.868   0.711  0.00  0.00    +0.026 A 
ATOM     19  C   UNL     1       1.017   1.826   1.821  0.00  0.00    +0.022 A 
ATOM     20  C   UNL     1      -0.147   1.203  -0.668  0.00  0.00    +0.259 A 
ATOM     23  C   UNL     1      -0.958   1.130   0.598  0.00  0.00    +0.047 A 
ATOM     24  C   UNL     1      -0.366   1.445   1.760  0.00  0.00    +0.015 A 
ENDROOT
BRANCH   7  15
ATOM      4  O   UNL     1       5.006  -4.018   0.252  0.00  0.00    -0.380 OA
ATOM     15  C   UNL     1       4.809  -1.155   0.028  0.00  0.00    +0.061 C 
ATOM     17  C   UNL     1       4.382  -1.911   1.290  0.00  0.00    +0.047 C 
ATOM     18  C   UNL     1       4.731  -2.081  -1.190  0.00  0.00    +0.047 C 
ATOM     21  C   UNL     1       5.168  -3.212   1.419  0.00  0.00    +0.161 C 
ATOM     22  C   UNL     1       5.496  -3.372  -0.923  0.00  0.00    +0.161 C 
ENDBRANCH   7  15
BRANCH  23  25
ATOM     25  C   UNL     1      -2.372   0.715   0.576  0.00  0.00    -0.012 A 
ATOM     26  C   UNL     1      -3.378   1.669   0.425  0.00  0.00    +0.012 A 
ATOM     27  C   UNL     1      -2.705  -0.634   0.707  0.00  0.00    +0.012 A 
ATOM     28  C   UNL     1      -4.716   1.276   0.405  0.00  0.00    +0.046 A 
ATOM     29  C   UNL     1      -4.043  -1.027   0.687  0.00  0.00    +0.046 A 
ATOM     30  C   UNL     1      -5.049  -0.073   0.536  0.00  0.00    +0.130 A 
BRANCH  30   6
ATOM      6  O   UNL     1      -6.354  -0.456   0.515  0.00  0.00    -0.406 OA
BRANCH   6  31
ATOM      1  F   UNL     1      -8.066  -1.101  -0.808  0.00  0.00    -0.133 F 
ATOM      2  F   UNL     1      -6.040  -1.208  -1.622  0.00  0.00    -0.133 F 
ATOM      3  F   UNL     1      -6.699  -2.640  -0.072  0.00  0.00    -0.133 F 
ATOM     31  C   UNL     1      -6.775  -1.361  -0.500  0.00  0.00    +0.575 C 
ENDBRANCH   6  31
ENDBRANCH  30   6
ENDBRANCH  23  25
TORSDOF 4
